/*---------------------------------------------------------------------------*\
| =========                 |                                                 |
| \\      /  F ield         | OpenFOAM: The Open Source CFD Toolbox           |
|  \\    /   O peration     | Version:  2206                                  |
|   \\  /    A nd           | Website:  www.openfoam.com                      |
|    \\/     M anipulation  |                                                 |
\*---------------------------------------------------------------------------*/
Build  : 76d719d1e6-20220624 OPENFOAM=2206 version=v2206
Arch   : "LSB;label=32;scalar=64"
Exec   : overInterDyMFoam -parallel
Date   : Apr 07 2023
Time   : 10:47:13
Host   : kruemmer.ihs.uni-stuttgart.de
PID    : 2357
I/O    : uncollated
Case   : /mnt/scratch/mzeitler/MasterArbeit/SpanPhase1/rotationTest
nProcs : 6
Hosts  :
(
    (kruemmer.ihs.uni-stuttgart.de 6)
)
Pstream initialized with:
    floatTransfer      : 0
    nProcsSimpleSum    : 0
    commsType          : nonBlocking
    polling iterations : 0
trapFpe: Floating point exception trapping enabled (FOAM_SIGFPE).
fileModificationChecking : Monitoring run-time modified files using timeStampMaster (fileModificationSkew 5, maxFileModificationPolls 20)
allowSystemOperations : Allowing user-supplied system call operations

// * * * * * * * * * * * * * * * * * * * * * * * * * * * * * * * * * * * * * //
Create time

Overriding DebugSwitches according to controlDict
    overset         0;

    dynamicOversetFvMesh 0;

    cellVolumeWeight 0;

Create mesh for time = 0

Selecting dynamicFvMesh dynamicOversetFvMesh
Selecting motion solver: multiSolidBodyMotionSolver
Applying motion to entire mesh
Selecting solid-body motion function rotatingMotion
Applying solid body motion rotatingMotion to 13065 points of cellZone oversetZone

PIMPLE: no residual control data found. Calculations will employ 5 corrector loops

Reading field p_rgh

Reading field U

Reading/calculating face flux field phi

Creating cellMask field to block out hole cells

--> FOAM Warning : 
    From bool Foam::oversetPolyPatch::master() const
    in file oversetPolyPatch/oversetPolyPatch.C at line 145
    The master overset patch is not the first patch. Generally the first patch should be an overset patch to guarantee consistent operation.
--> FOAM Warning : 
    From bool Foam::oversetPolyPatch::master() const
    in file oversetPolyPatch/oversetPolyPatch.C at line 145
    The master overset patch is not the first patch. Generally the first patch should be an overset patch to guarantee consistent operation.
Creating interpolatedCells field 

Reading transportProperties

Selecting incompressible transport model Newtonian
Selecting incompressible transport model Newtonian
Selecting turbulence model type laminar
Selecting laminar stress model Stokes

Reading g

Reading hRef
Calculating field g.h

No MRF models present

No finite volume options present
diagonalPBiCGStab:  Solving for pcorr:  solution singularity
diagonalPBiCGStab:  Solving for pcorr:  solution singularity
diagonalPBiCGStab:  Solving for pcorr:  solution singularity
diagonalPBiCGStab:  Solving for pcorr:  solution singularity
Reading/calculating face velocity Uf

Courant Number mean: 0 max: 0

Starting time loop

Courant Number mean: 0 max: 0
Interface Courant Number mean: 0 max: 0
Time = 5e-05

PIMPLE: iteration 1
cellVolumeWeight : detected 3 mesh regions

    zone:0 nCells:703766
    zone:1 nCells:8512
    zone:2 nCells:11823
Marking patch-cells on zone 0
Marking patch-cells on zone 1
Marking patch-cells on zone 2

After patch analysis : nCells : 724101
    other  : 646608
    patch  : 70582
    overset: 6911

Creating mesh-to-mesh addressing for region0 and region0 regions using cellVolumeWeight
meshToMesh: Using AABBTree method
    Overlap volume: 7.18195e-10
Creating mesh-to-mesh addressing for region0 and region0 regions using cellVolumeWeight
meshToMesh: Using AABBTree method
    Overlap volume: 2.62712e-09
Creating mesh-to-mesh addressing for region0 and region0 regions using cellVolumeWeight
    Overlap volume: 4.54087e-11
cellVolumeWeight : detected 34 mesh regions after overset

Front : fraction:1 size:20756
Overset analysis : nCells : 724101
    calculated   : 700185
    interpolated : 15376
    hole         : 8540

[1] swak4Foam: Allocating new repository for sampledGlobalVariables
[2] swak4Foam: Allocating new repository for sampledGlobalVariables
[3] swak4Foam: Allocating new repository for sampledGlobalVariables
[4] swak4Foam: Allocating new repository for sampledGlobalVariables
[5] swak4Foam: Allocating new repository for sampledGlobalVariables
[0] swak4Foam: Allocating new repository for sampledGlobalVariables
Execution time for mesh.update() = 12.27 s
smoothSolver:  Solving for alpha.water, Initial residual = 1, Final residual = 1.94295e-17, No Iterations 1
Phase-1 volume fraction = 4.70439e-05  Min(alpha.water) = 0  Max(alpha.water) = 1
MULES: Correcting alpha.water
MULES: Correcting alpha.water
Phase-1 volume fraction = 4.70439e-05  Min(alpha.water) = 0  Max(alpha.water) = 1
smoothSolver:  Solving for alpha.water, Initial residual = 0.225368, Final residual = 7.88087e-18, No Iterations 1
Phase-1 volume fraction = 7.85701e-05  Min(alpha.water) = 0  Max(alpha.water) = 1
MULES: Correcting alpha.water
MULES: Correcting alpha.water
Phase-1 volume fraction = 7.85701e-05  Min(alpha.water) = 0  Max(alpha.water) = 1
smoothSolver:  Solving for alpha.water, Initial residual = 0.10467, Final residual = 3.64119e-18, No Iterations 1
Phase-1 volume fraction = 9.98146e-05  Min(alpha.water) = 0  Max(alpha.water) = 1
MULES: Correcting alpha.water
MULES: Correcting alpha.water
Phase-1 volume fraction = 9.98146e-05  Min(alpha.water) = 0  Max(alpha.water) = 1
smoothSolver:  Solving for alpha.water, Initial residual = 0.0584621, Final residual = 3.01802e-18, No Iterations 1
Phase-1 volume fraction = 0.000114217  Min(alpha.water) = 0  Max(alpha.water) = 1
MULES: Correcting alpha.water
MULES: Correcting alpha.water
Phase-1 volume fraction = 0.000114217  Min(alpha.water) = 0  Max(alpha.water) = 1
smoothSolver:  Solving for alpha.water, Initial residual = 0.03552, Final residual = 0, No Iterations 1
Phase-1 volume fraction = 0.000124045  Min(alpha.water) = 0  Max(alpha.water) = 1
MULES: Correcting alpha.water
MULES: Correcting alpha.water
Phase-1 volume fraction = 0.000124045  Min(alpha.water) = 0  Max(alpha.water) = 1
diagonalPBiCGStab:  Solving for p_rgh, Initial residual = 1, Final residual = 0.209835, No Iterations 50
diagonalPBiCGStab:  Solving for p_rgh, Initial residual = 0.0701092, Final residual = 0.0582718, No Iterations 50
diagonalPBiCGStab:  Solving for p_rgh, Initial residual = 0.0195759, Final residual = 0.0136686, No Iterations 50
diagonalPBiCGStab:  Solving for p_rgh, Initial residual = 0.011776, Final residual = 0.00363328, No Iterations 50
time step continuity errors : sum local = 0.0002913, global = -0.000275872, cumulative = -0.000275872
diagonalPBiCGStab:  Solving for p_rgh, Initial residual = 0.011242, Final residual = 0.00823705, No Iterations 50
diagonalPBiCGStab:  Solving for p_rgh, Initial residual = 0.00979007, Final residual = 0.00369858, No Iterations 50
diagonalPBiCGStab:  Solving for p_rgh, Initial residual = 0.0071956, Final residual = 0.00289489, No Iterations 50
diagonalPBiCGStab:  Solving for p_rgh, Initial residual = 0.00389051, Final residual = 0.00153866, No Iterations 50
time step continuity errors : sum local = 0.000193101, global = -0.000167687, cumulative = -0.000443559
diagonalPBiCGStab:  Solving for p_rgh, Initial residual = 0.00392913, Final residual = 0.00104403, No Iterations 50
diagonalPBiCGStab:  Solving for p_rgh, Initial residual = 0.00187214, Final residual = 0.00121662, No Iterations 50
diagonalPBiCGStab:  Solving for p_rgh, Initial residual = 0.00164579, Final residual = 0.000583956, No Iterations 50
diagonalPBiCGStab:  Solving for p_rgh, Initial residual = 0.00107759, Final residual = 0.000609557, No Iterations 50
time step continuity errors : sum local = 0.000101372, global = -6.51646e-05, cumulative = -0.000508723
PIMPLE: iteration 2
smoothSolver:  Solving for alpha.water, Initial residual = 0.490614, Final residual = 4.63301e-09, No Iterations 3
Phase-1 volume fraction = 6.83985e-05  Min(alpha.water) = 0  Max(alpha.water) = 1
MULES: Correcting alpha.water
MULES: Correcting alpha.water
Phase-1 volume fraction = 6.83985e-05  Min(alpha.water) = -8.05985e-15  Max(alpha.water) = 1
smoothSolver:  Solving for alpha.water, Initial residual = 0.24031, Final residual = 7.38417e-09, No Iterations 3
Phase-1 volume fraction = 0.000136795  Min(alpha.water) = -1.16014e-39  Max(alpha.water) = 1
MULES: Correcting alpha.water
MULES: Correcting alpha.water
Phase-1 volume fraction = 0.000136795  Min(alpha.water) = -1.17935e-18  Max(alpha.water) = 1
smoothSolver:  Solving for alpha.water, Initial residual = 0.153255, Final residual = 5.41062e-09, No Iterations 3
Phase-1 volume fraction = 0.000205188  Min(alpha.water) = -4.81212e-44  Max(alpha.water) = 1
MULES: Correcting alpha.water
MULES: Correcting alpha.water
Phase-1 volume fraction = 0.000205188  Min(alpha.water) = -1.54842e-19  Max(alpha.water) = 1
smoothSolver:  Solving for alpha.water, Initial residual = 0.115418, Final residual = 4.92455e-09, No Iterations 3
Phase-1 volume fraction = 0.000273577  Min(alpha.water) = -1.68029e-44  Max(alpha.water) = 1
MULES: Correcting alpha.water
MULES: Correcting alpha.water
Phase-1 volume fraction = 0.000273577  Min(alpha.water) = -2.62984e-19  Max(alpha.water) = 1
smoothSolver:  Solving for alpha.water, Initial residual = 0.0956185, Final residual = 5.38689e-09, No Iterations 3
Phase-1 volume fraction = 0.00034196  Min(alpha.water) = -3.331e-45  Max(alpha.water) = 1
MULES: Correcting alpha.water
MULES: Correcting alpha.water
Phase-1 volume fraction = 0.00034196  Min(alpha.water) = -4.08563e-19  Max(alpha.water) = 1
diagonalPBiCGStab:  Solving for p_rgh, Initial residual = 0.00707644, Final residual = 0.00250703, No Iterations 50
diagonalPBiCGStab:  Solving for p_rgh, Initial residual = 0.00331617, Final residual = 0.000528653, No Iterations 50
diagonalPBiCGStab:  Solving for p_rgh, Initial residual = 0.00158702, Final residual = 0.000251188, No Iterations 50
diagonalPBiCGStab:  Solving for p_rgh, Initial residual = 0.00064705, Final residual = 0.000170823, No Iterations 50
time step continuity errors : sum local = 3.03895e-05, global = 2.29935e-05, cumulative = -0.00048573
diagonalPBiCGStab:  Solving for p_rgh, Initial residual = 0.00258838, Final residual = 0.00037962, No Iterations 50
diagonalPBiCGStab:  Solving for p_rgh, Initial residual = 0.000691666, Final residual = 0.00268, No Iterations 50
diagonalPBiCGStab:  Solving for p_rgh, Initial residual = 0.00272725, Final residual = 0.000584893, No Iterations 50
diagonalPBiCGStab:  Solving for p_rgh, Initial residual = 0.00124232, Final residual = 0.000656718, No Iterations 50
time step continuity errors : sum local = 0.000139768, global = 0.000106459, cumulative = -0.00037927
diagonalPBiCGStab:  Solving for p_rgh, Initial residual = 0.00203653, Final residual = 0.000721822, No Iterations 50
diagonalPBiCGStab:  Solving for p_rgh, Initial residual = 0.00129954, Final residual = 0.000804463, No Iterations 50
diagonalPBiCGStab:  Solving for p_rgh, Initial residual = 0.00142629, Final residual = 0.000607107, No Iterations 50
diagonalPBiCGStab:  Solving for p_rgh, Initial residual = 0.00113124, Final residual = 0.000638577, No Iterations 50
time step continuity errors : sum local = 0.000110678, global = 8.10342e-05, cumulative = -0.000298236
PIMPLE: iteration 3
smoothSolver:  Solving for alpha.water, Initial residual = 0.520294, Final residual = 3.66872e-10, No Iterations 4
Phase-1 volume fraction = 6.93341e-05  Min(alpha.water) = -6.32068e-54  Max(alpha.water) = 1
MULES: Correcting alpha.water
MULES: Correcting alpha.water
Phase-1 volume fraction = 6.93341e-05  Min(alpha.water) = -3.55495e-15  Max(alpha.water) = 1
smoothSolver:  Solving for alpha.water, Initial residual = 0.241312, Final residual = 2.47543e-10, No Iterations 4
Phase-1 volume fraction = 0.000138668  Min(alpha.water) = -3.22566e-82  Max(alpha.water) = 1
MULES: Correcting alpha.water
MULES: Correcting alpha.water
Phase-1 volume fraction = 0.000138668  Min(alpha.water) = -3.14273e-16  Max(alpha.water) = 1
smoothSolver:  Solving for alpha.water, Initial residual = 0.153806, Final residual = 2.31652e-10, No Iterations 4
Phase-1 volume fraction = 0.000208003  Min(alpha.water) = -6.14407e-116  Max(alpha.water) = 1
MULES: Correcting alpha.water
MULES: Correcting alpha.water
Phase-1 volume fraction = 0.000208003  Min(alpha.water) = -5.89822e-16  Max(alpha.water) = 1
smoothSolver:  Solving for alpha.water, Initial residual = 0.110653, Final residual = 2.42051e-10, No Iterations 4
Phase-1 volume fraction = 0.000277337  Min(alpha.water) = -3.27157e-116  Max(alpha.water) = 1
MULES: Correcting alpha.water
MULES: Correcting alpha.water
Phase-1 volume fraction = 0.000277337  Min(alpha.water) = -4.32223e-16  Max(alpha.water) = 1
smoothSolver:  Solving for alpha.water, Initial residual = 0.088582, Final residual = 2.82377e-10, No Iterations 4
Phase-1 volume fraction = 0.000346672  Min(alpha.water) = -1.06737e-115  Max(alpha.water) = 1
MULES: Correcting alpha.water
MULES: Correcting alpha.water
Phase-1 volume fraction = 0.000346672  Min(alpha.water) = -1.22835e-17  Max(alpha.water) = 1
diagonalPBiCGStab:  Solving for p_rgh, Initial residual = 0.0244386, Final residual = 0.0007073, No Iterations 50
diagonalPBiCGStab:  Solving for p_rgh, Initial residual = 0.00229454, Final residual = 0.000551195, No Iterations 50
diagonalPBiCGStab:  Solving for p_rgh, Initial residual = 0.00121383, Final residual = 0.000379764, No Iterations 50
diagonalPBiCGStab:  Solving for p_rgh, Initial residual = 0.000681881, Final residual = 0.000406334, No Iterations 50
time step continuity errors : sum local = 6.19336e-05, global = 2.90588e-05, cumulative = -0.000269177
diagonalPBiCGStab:  Solving for p_rgh, Initial residual = 0.00229952, Final residual = 0.000369374, No Iterations 50
diagonalPBiCGStab:  Solving for p_rgh, Initial residual = 0.00112222, Final residual = 0.000386506, No Iterations 50
diagonalPBiCGStab:  Solving for p_rgh, Initial residual = 0.000836961, Final residual = 0.000335646, No Iterations 50
diagonalPBiCGStab:  Solving for p_rgh, Initial residual = 0.000591228, Final residual = 0.000254181, No Iterations 50
time step continuity errors : sum local = 3.32572e-05, global = 2.78686e-05, cumulative = -0.000241309
diagonalPBiCGStab:  Solving for p_rgh, Initial residual = 0.000947341, Final residual = 0.000271208, No Iterations 50
diagonalPBiCGStab:  Solving for p_rgh, Initial residual = 0.000528106, Final residual = 0.000296321, No Iterations 50
diagonalPBiCGStab:  Solving for p_rgh, Initial residual = 0.000539227, Final residual = 0.000212068, No Iterations 50
diagonalPBiCGStab:  Solving for p_rgh, Initial residual = 0.000443585, Final residual = 0.000191462, No Iterations 50
time step continuity errors : sum local = 2.32349e-05, global = 1.90729e-05, cumulative = -0.000222236
PIMPLE: iteration 4
smoothSolver:  Solving for alpha.water, Initial residual = 0.530079, Final residual = 8.73116e-10, No Iterations 4
Phase-1 volume fraction = 6.90608e-05  Min(alpha.water) = -1.3211e-92  Max(alpha.water) = 1
MULES: Correcting alpha.water
MULES: Correcting alpha.water
Phase-1 volume fraction = 6.90608e-05  Min(alpha.water) = -4.64815e-13  Max(alpha.water) = 1
smoothSolver:  Solving for alpha.water, Initial residual = 0.24062, Final residual = 5.21558e-10, No Iterations 4
Phase-1 volume fraction = 0.000138122  Min(alpha.water) = -5.65477e-125  Max(alpha.water) = 1
MULES: Correcting alpha.water
MULES: Correcting alpha.water
Phase-1 volume fraction = 0.000138122  Min(alpha.water) = -4.28013e-14  Max(alpha.water) = 1
smoothSolver:  Solving for alpha.water, Initial residual = 0.153421, Final residual = 4.96288e-10, No Iterations 4
Phase-1 volume fraction = 0.000207182  Min(alpha.water) = -1.82889e-14  Max(alpha.water) = 1
MULES: Correcting alpha.water
MULES: Correcting alpha.water
Phase-1 volume fraction = 0.000207182  Min(alpha.water) = -1.443e-16  Max(alpha.water) = 1
smoothSolver:  Solving for alpha.water, Initial residual = 0.110474, Final residual = 5.18069e-10, No Iterations 4
Phase-1 volume fraction = 0.000276243  Min(alpha.water) = -1.27041e-16  Max(alpha.water) = 1
MULES: Correcting alpha.water
MULES: Correcting alpha.water
Phase-1 volume fraction = 0.000276243  Min(alpha.water) = -3.15864e-15  Max(alpha.water) = 1
smoothSolver:  Solving for alpha.water, Initial residual = 0.0904981, Final residual = 5.96421e-10, No Iterations 4
Phase-1 volume fraction = 0.000345304  Min(alpha.water) = -1.92256e-15  Max(alpha.water) = 1
MULES: Correcting alpha.water
MULES: Correcting alpha.water
Phase-1 volume fraction = 0.000345304  Min(alpha.water) = -8.65929e-12  Max(alpha.water) = 1
diagonalPBiCGStab:  Solving for p_rgh, Initial residual = 0.0124291, Final residual = 0.000394868, No Iterations 50
diagonalPBiCGStab:  Solving for p_rgh, Initial residual = 0.00202774, Final residual = 0.000365464, No Iterations 50
diagonalPBiCGStab:  Solving for p_rgh, Initial residual = 0.000900742, Final residual = 0.000885564, No Iterations 50
diagonalPBiCGStab:  Solving for p_rgh, Initial residual = 0.00166623, Final residual = 0.000362223, No Iterations 50
time step continuity errors : sum local = 3.8132e-05, global = 2.97653e-05, cumulative = -0.000192471
diagonalPBiCGStab:  Solving for p_rgh, Initial residual = 0.00241997, Final residual = 0.000424581, No Iterations 50
diagonalPBiCGStab:  Solving for p_rgh, Initial residual = 0.00102448, Final residual = 0.000271302, No Iterations 50
diagonalPBiCGStab:  Solving for p_rgh, Initial residual = 0.000689173, Final residual = 0.000297593, No Iterations 50
diagonalPBiCGStab:  Solving for p_rgh, Initial residual = 0.000563226, Final residual = 0.000159952, No Iterations 50
time step continuity errors : sum local = 1.54454e-05, global = 1.43148e-05, cumulative = -0.000178156
diagonalPBiCGStab:  Solving for p_rgh, Initial residual = 0.000882335, Final residual = 0.000131144, No Iterations 50
diagonalPBiCGStab:  Solving for p_rgh, Initial residual = 0.000366153, Final residual = 0.000106806, No Iterations 50
diagonalPBiCGStab:  Solving for p_rgh, Initial residual = 0.0001992, Final residual = 9.98723e-05, No Iterations 21
diagonalPBiCGStab:  Solving for p_rgh, Initial residual = 0.000147544, Final residual = 0.000100952, No Iterations 50
time step continuity errors : sum local = 9.61164e-06, global = 7.16577e-06, cumulative = -0.00017099
PIMPLE: iteration 5
smoothSolver:  Solving for alpha.water, Initial residual = 0.526176, Final residual = 1.16596e-09, No Iterations 4
Phase-1 volume fraction = 6.92123e-05  Min(alpha.water) = -8.13538e-86  Max(alpha.water) = 1
MULES: Correcting alpha.water
MULES: Correcting alpha.water
Phase-1 volume fraction = 6.92123e-05  Min(alpha.water) = -4.03855e-13  Max(alpha.water) = 1
smoothSolver:  Solving for alpha.water, Initial residual = 0.24027, Final residual = 6.58248e-10, No Iterations 4
Phase-1 volume fraction = 0.000138425  Min(alpha.water) = -4.38595e-85  Max(alpha.water) = 1
MULES: Correcting alpha.water
MULES: Correcting alpha.water
Phase-1 volume fraction = 0.000138425  Min(alpha.water) = -7.22624e-16  Max(alpha.water) = 1
smoothSolver:  Solving for alpha.water, Initial residual = 0.153242, Final residual = 6.35985e-10, No Iterations 4
Phase-1 volume fraction = 0.000207637  Min(alpha.water) = -3.49006e-79  Max(alpha.water) = 1
MULES: Correcting alpha.water
MULES: Correcting alpha.water
Phase-1 volume fraction = 0.000207637  Min(alpha.water) = -6.44837e-19  Max(alpha.water) = 1
smoothSolver:  Solving for alpha.water, Initial residual = 0.111074, Final residual = 6.65055e-10, No Iterations 4
Phase-1 volume fraction = 0.000276849  Min(alpha.water) = -3.45733e-19  Max(alpha.water) = 1
MULES: Correcting alpha.water
MULES: Correcting alpha.water
Phase-1 volume fraction = 0.000276849  Min(alpha.water) = -1.25503e-27  Max(alpha.water) = 1
smoothSolver:  Solving for alpha.water, Initial residual = 0.0906876, Final residual = 7.61428e-10, No Iterations 4
Phase-1 volume fraction = 0.000346062  Min(alpha.water) = -3.33863e-31  Max(alpha.water) = 1
MULES: Correcting alpha.water
MULES: Correcting alpha.water
Phase-1 volume fraction = 0.000346062  Min(alpha.water) = -6.41166e-25  Max(alpha.water) = 1
diagonalPBiCGStab:  Solving for p_rgh, Initial residual = 0.0213908, Final residual = 0.000459493, No Iterations 50
diagonalPBiCGStab:  Solving for p_rgh, Initial residual = 0.00254824, Final residual = 0.000788043, No Iterations 50
diagonalPBiCGStab:  Solving for p_rgh, Initial residual = 0.00141479, Final residual = 0.000371544, No Iterations 50
diagonalPBiCGStab:  Solving for p_rgh, Initial residual = 0.000838378, Final residual = 0.000320063, No Iterations 50
time step continuity errors : sum local = 3.0396e-05, global = -1.93763e-05, cumulative = -0.000190366
diagonalPBiCGStab:  Solving for p_rgh, Initial residual = 0.00220251, Final residual = 0.00026544, No Iterations 50
diagonalPBiCGStab:  Solving for p_rgh, Initial residual = 0.000822358, Final residual = 0.000262505, No Iterations 50
diagonalPBiCGStab:  Solving for p_rgh, Initial residual = 0.000476012, Final residual = 0.00025724, No Iterations 50
diagonalPBiCGStab:  Solving for p_rgh, Initial residual = 0.000432723, Final residual = 0.000162329, No Iterations 50
time step continuity errors : sum local = 1.63947e-05, global = -1.51479e-05, cumulative = -0.000205514
diagonalPBiCGStab:  Solving for p_rgh, Initial residual = 0.000617006, Final residual = 0.0001517, No Iterations 50
diagonalPBiCGStab:  Solving for p_rgh, Initial residual = 0.0002839, Final residual = 0.000114093, No Iterations 50
diagonalPBiCGStab:  Solving for p_rgh, Initial residual = 0.000176555, Final residual = 0.000111056, No Iterations 50
diagonalPBiCGStab:  Solving for p_rgh, Initial residual = 0.000152622, Final residual = 9.42444e-05, No Iterations 50
time step continuity errors : sum local = 9.89349e-06, global = -9.00335e-06, cumulative = -0.000214517
ExecutionTime = 76.92 s  ClockTime = 77 s

Courant Number mean: 0.063323 max: 9.70158
Interface Courant Number mean: 0.00192287 max: 6.38516
Time = 0.0001

PIMPLE: iteration 1
cellVolumeWeight : detected 3 mesh regions

    zone:0 nCells:703766
    zone:1 nCells:8512
    zone:2 nCells:11823
Marking patch-cells on zone 0
Marking patch-cells on zone 1
Marking patch-cells on zone 2

After patch analysis : nCells : 724101
    other  : 646608
    patch  : 70582
    overset: 6911

Creating mesh-to-mesh addressing for region0 and region0 regions using cellVolumeWeight
meshToMesh: Using AABBTree method
    Overlap volume: 7.1812e-10
Creating mesh-to-mesh addressing for region0 and region0 regions using cellVolumeWeight
meshToMesh: Using AABBTree method
    Overlap volume: 2.62712e-09
Creating mesh-to-mesh addressing for region0 and region0 regions using cellVolumeWeight
    Overlap volume: 4.52248e-11
cellVolumeWeight : detected 34 mesh regions after overset

Front : fraction:1 size:20756
Overset analysis : nCells : 724101
    calculated   : 700185
    interpolated : 15376
    hole         : 8540

Execution time for mesh.update() = 12.27 s
smoothSolver:  Solving for alpha.water, Initial residual = 0.0765768, Final residual = 1.23637e-09, No Iterations 4
Phase-1 volume fraction = 0.000417139  Min(alpha.water) = -1.93463e-94  Max(alpha.water) = 1
MULES: Correcting alpha.water
MULES: Correcting alpha.water
Phase-1 volume fraction = 0.000417139  Min(alpha.water) = -4.21029e-15  Max(alpha.water) = 1
smoothSolver:  Solving for alpha.water, Initial residual = 0.0671119, Final residual = 1.49938e-09, No Iterations 4
Phase-1 volume fraction = 0.000488524  Min(alpha.water) = -1.80515e-127  Max(alpha.water) = 1
MULES: Correcting alpha.water
MULES: Correcting alpha.water
Phase-1 volume fraction = 0.000488524  Min(alpha.water) = -6.6813e-22  Max(alpha.water) = 1
smoothSolver:  Solving for alpha.water, Initial residual = 0.0609358, Final residual = 1.85499e-09, No Iterations 4
Phase-1 volume fraction = 0.000560242  Min(alpha.water) = -5.90623e-128  Max(alpha.water) = 1
MULES: Correcting alpha.water
MULES: Correcting alpha.water
Phase-1 volume fraction = 0.000560242  Min(alpha.water) = -4.16435e-22  Max(alpha.water) = 1
smoothSolver:  Solving for alpha.water, Initial residual = 0.0546652, Final residual = 2.34713e-09, No Iterations 4
Phase-1 volume fraction = 0.000632289  Min(alpha.water) = -2.28689e-124  Max(alpha.water) = 1
MULES: Correcting alpha.water
MULES: Correcting alpha.water
Phase-1 volume fraction = 0.000632289  Min(alpha.water) = -1.35854e-21  Max(alpha.water) = 1
smoothSolver:  Solving for alpha.water, Initial residual = 0.0497122, Final residual = 3.05485e-09, No Iterations 4
Phase-1 volume fraction = 0.000704641  Min(alpha.water) = -2.42057e-120  Max(alpha.water) = 1
MULES: Correcting alpha.water
MULES: Correcting alpha.water
Phase-1 volume fraction = 0.000704641  Min(alpha.water) = -6.75012e-19  Max(alpha.water) = 1
diagonalPBiCGStab:  Solving for p_rgh, Initial residual = 0.0178023, Final residual = 0.00171668, No Iterations 50
diagonalPBiCGStab:  Solving for p_rgh, Initial residual = 0.00348613, Final residual = 0.000660524, No Iterations 50
diagonalPBiCGStab:  Solving for p_rgh, Initial residual = 0.00178765, Final residual = 0.000198632, No Iterations 50
diagonalPBiCGStab:  Solving for p_rgh, Initial residual = 0.000635939, Final residual = 0.000126193, No Iterations 50
time step continuity errors : sum local = 1.3459e-05, global = 7.64209e-06, cumulative = -0.000206875
diagonalPBiCGStab:  Solving for p_rgh, Initial residual = 0.00319501, Final residual = 0.00429901, No Iterations 50
diagonalPBiCGStab:  Solving for p_rgh, Initial residual = 0.00578235, Final residual = 0.000634594, No Iterations 50
diagonalPBiCGStab:  Solving for p_rgh, Initial residual = 0.00216837, Final residual = 0.000342584, No Iterations 50
diagonalPBiCGStab:  Solving for p_rgh, Initial residual = 0.000847286, Final residual = 0.000267616, No Iterations 50
time step continuity errors : sum local = 2.57707e-05, global = 2.02483e-05, cumulative = -0.000186627
diagonalPBiCGStab:  Solving for p_rgh, Initial residual = 0.00182957, Final residual = 0.000317505, No Iterations 50
diagonalPBiCGStab:  Solving for p_rgh, Initial residual = 0.000680001, Final residual = 0.000343918, No Iterations 50
diagonalPBiCGStab:  Solving for p_rgh, Initial residual = 0.000615641, Final residual = 0.000410351, No Iterations 50
diagonalPBiCGStab:  Solving for p_rgh, Initial residual = 0.00058003, Final residual = 0.00030618, No Iterations 50
time step continuity errors : sum local = 2.73308e-05, global = 1.98536e-05, cumulative = -0.000166773
PIMPLE: iteration 2
smoothSolver:  Solving for alpha.water, Initial residual = 0.228309, Final residual = 8.69205e-09, No Iterations 4
Phase-1 volume fraction = 0.000416384  Min(alpha.water) = -2.59944e-119  Max(alpha.water) = 1
MULES: Correcting alpha.water
MULES: Correcting alpha.water
Phase-1 volume fraction = 0.000416384  Min(alpha.water) = -2.43503e-20  Max(alpha.water) = 1
smoothSolver:  Solving for alpha.water, Initial residual = 0.0646964, Final residual = 3.6596e-09, No Iterations 4
Phase-1 volume fraction = 0.000486706  Min(alpha.water) = -7.14476e-133  Max(alpha.water) = 1
MULES: Correcting alpha.water
MULES: Correcting alpha.water
Phase-1 volume fraction = 0.000486706  Min(alpha.water) = -5.71054e-13  Max(alpha.water) = 1
smoothSolver:  Solving for alpha.water, Initial residual = 0.0568764, Final residual = 4.67824e-09, No Iterations 4
Phase-1 volume fraction = 0.000557028  Min(alpha.water) = -2.8587e-115  Max(alpha.water) = 1
MULES: Correcting alpha.water
MULES: Correcting alpha.water
Phase-1 volume fraction = 0.000557028  Min(alpha.water) = -4.98727e-12  Max(alpha.water) = 1
smoothSolver:  Solving for alpha.water, Initial residual = 0.0509064, Final residual = 6.09503e-09, No Iterations 4
Phase-1 volume fraction = 0.00062735  Min(alpha.water) = -7.49476e-23  Max(alpha.water) = 1
MULES: Correcting alpha.water
MULES: Correcting alpha.water
Phase-1 volume fraction = 0.00062735  Min(alpha.water) = -4.63818e-20  Max(alpha.water) = 1
smoothSolver:  Solving for alpha.water, Initial residual = 0.0459007, Final residual = 8.17157e-09, No Iterations 4
Phase-1 volume fraction = 0.000697673  Min(alpha.water) = -6.55267e-23  Max(alpha.water) = 1
MULES: Correcting alpha.water
MULES: Correcting alpha.water
Phase-1 volume fraction = 0.000697673  Min(alpha.water) = -9.21755e-20  Max(alpha.water) = 1
diagonalPBiCGStab:  Solving for p_rgh, Initial residual = 0.0384708, Final residual = 0.00164397, No Iterations 50
diagonalPBiCGStab:  Solving for p_rgh, Initial residual = 0.00629613, Final residual = 0.00253333, No Iterations 50
diagonalPBiCGStab:  Solving for p_rgh, Initial residual = 0.0036327, Final residual = 0.00211427, No Iterations 50
diagonalPBiCGStab:  Solving for p_rgh, Initial residual = 0.0048732, Final residual = 0.00208947, No Iterations 50
time step continuity errors : sum local = 0.000163334, global = 0.000141549, cumulative = -2.52249e-05
diagonalPBiCGStab:  Solving for p_rgh, Initial residual = 0.00829234, Final residual = 0.00252666, No Iterations 50
diagonalPBiCGStab:  Solving for p_rgh, Initial residual = 0.00483183, Final residual = 0.00295529, No Iterations 50
diagonalPBiCGStab:  Solving for p_rgh, Initial residual = 0.0066336, Final residual = 0.00256542, No Iterations 50
diagonalPBiCGStab:  Solving for p_rgh, Initial residual = 0.00526456, Final residual = 0.00349094, No Iterations 50
time step continuity errors : sum local = 0.000125809, global = 8.58623e-05, cumulative = 6.06374e-05
diagonalPBiCGStab:  Solving for p_rgh, Initial residual = 0.0124831, Final residual = 0.00256587, No Iterations 50
diagonalPBiCGStab:  Solving for p_rgh, Initial residual = 0.00661405, Final residual = 0.00352818, No Iterations 50
diagonalPBiCGStab:  Solving for p_rgh, Initial residual = 0.00865845, Final residual = 0.00397058, No Iterations 50
diagonalPBiCGStab:  Solving for p_rgh, Initial residual = 0.00985284, Final residual = 0.00431413, No Iterations 50
time step continuity errors : sum local = 4.99311e-05, global = 4.40362e-05, cumulative = 0.000104674
PIMPLE: iteration 3
smoothSolver:  Solving for alpha.water, Initial residual = 0.229359, Final residual = 2.46671e-10, No Iterations 5
Phase-1 volume fraction = 0.000416388  Min(alpha.water) = -7.05985e-37  Max(alpha.water) = 1
MULES: Correcting alpha.water
MULES: Correcting alpha.water
Phase-1 volume fraction = 0.000416388  Min(alpha.water) = -7.1373e-26  Max(alpha.water) = 1
smoothSolver:  Solving for alpha.water, Initial residual = 0.0649436, Final residual = 4.69282e-09, No Iterations 4
Phase-1 volume fraction = 0.000486714  Min(alpha.water) = -4.32606e-37  Max(alpha.water) = 1
MULES: Correcting alpha.water
MULES: Correcting alpha.water
Phase-1 volume fraction = 0.000486714  Min(alpha.water) = -4.32606e-37  Max(alpha.water) = 1
smoothSolver:  Solving for alpha.water, Initial residual = 0.0572034, Final residual = 6.08803e-09, No Iterations 4
Phase-1 volume fraction = 0.00055704  Min(alpha.water) = -2.41791e-37  Max(alpha.water) = 1
MULES: Correcting alpha.water
MULES: Correcting alpha.water
Phase-1 volume fraction = 0.00055704  Min(alpha.water) = -5.35723e-35  Max(alpha.water) = 1
smoothSolver:  Solving for alpha.water, Initial residual = 0.0510434, Final residual = 8.02942e-09, No Iterations 4
Phase-1 volume fraction = 0.000627366  Min(alpha.water) = -7.53018e-38  Max(alpha.water) = 1
MULES: Correcting alpha.water
MULES: Correcting alpha.water
Phase-1 volume fraction = 0.000627366  Min(alpha.water) = -9.75685e-26  Max(alpha.water) = 1
smoothSolver:  Solving for alpha.water, Initial residual = 0.0460789, Final residual = 1.59864e-10, No Iterations 5
Phase-1 volume fraction = 0.000697692  Min(alpha.water) = -5.96895e-39  Max(alpha.water) = 1
MULES: Correcting alpha.water
MULES: Correcting alpha.water
Phase-1 volume fraction = 0.000697692  Min(alpha.water) = -5.78274e-26  Max(alpha.water) = 1
diagonalPBiCGStab:  Solving for p_rgh, Initial residual = 0.435833, Final residual = 0.0227102, No Iterations 50
diagonalPBiCGStab:  Solving for p_rgh, Initial residual = 0.0668128, Final residual = 0.00980525, No Iterations 50
diagonalPBiCGStab:  Solving for p_rgh, Initial residual = 0.0197986, Final residual = 0.00677854, No Iterations 50
diagonalPBiCGStab:  Solving for p_rgh, Initial residual = 0.011422, Final residual = 0.00449268, No Iterations 50
time step continuity errors : sum local = 6.40536e-05, global = -5.10609e-05, cumulative = 5.36127e-05
diagonalPBiCGStab:  Solving for p_rgh, Initial residual = 0.0227457, Final residual = 0.00488239, No Iterations 50
diagonalPBiCGStab:  Solving for p_rgh, Initial residual = 0.00954865, Final residual = 0.00368218, No Iterations 50
diagonalPBiCGStab:  Solving for p_rgh, Initial residual = 0.00498261, Final residual = 0.00224706, No Iterations 50
diagonalPBiCGStab:  Solving for p_rgh, Initial residual = 0.00321813, Final residual = 0.00160241, No Iterations 50
time step continuity errors : sum local = 4.37815e-05, global = -3.83379e-05, cumulative = 1.52749e-05
diagonalPBiCGStab:  Solving for p_rgh, Initial residual = 0.00452075, Final residual = 0.00147687, No Iterations 50
diagonalPBiCGStab:  Solving for p_rgh, Initial residual = 0.00235866, Final residual = 0.00107745, No Iterations 50
diagonalPBiCGStab:  Solving for p_rgh, Initial residual = 0.00168236, Final residual = 0.000975617, No Iterations 50
diagonalPBiCGStab:  Solving for p_rgh, Initial residual = 0.00144345, Final residual = 0.000707388, No Iterations 50
time step continuity errors : sum local = 2.67122e-05, global = -2.35767e-05, cumulative = -8.30186e-06
PIMPLE: iteration 4
smoothSolver:  Solving for alpha.water, Initial residual = 0.227424, Final residual = 3.35138e-10, No Iterations 5
Phase-1 volume fraction = 0.000416324  Min(alpha.water) = -3.35616e-25  Max(alpha.water) = 1
MULES: Correcting alpha.water
MULES: Correcting alpha.water
Phase-1 volume fraction = 0.000416324  Min(alpha.water) = -3.26036e-12  Max(alpha.water) = 1
smoothSolver:  Solving for alpha.water, Initial residual = 0.0639646, Final residual = 6.04769e-09, No Iterations 4
Phase-1 volume fraction = 0.000486587  Min(alpha.water) = -4.47044e-39  Max(alpha.water) = 1
MULES: Correcting alpha.water
MULES: Correcting alpha.water
Phase-1 volume fraction = 0.000486587  Min(alpha.water) = -2.71299e-23  Max(alpha.water) = 1
smoothSolver:  Solving for alpha.water, Initial residual = 0.0567387, Final residual = 7.95291e-09, No Iterations 4
Phase-1 volume fraction = 0.000556849  Min(alpha.water) = -3.17066e-39  Max(alpha.water) = 1
MULES: Correcting alpha.water
MULES: Correcting alpha.water
Phase-1 volume fraction = 0.000556849  Min(alpha.water) = -1.93243e-21  Max(alpha.water) = 1
smoothSolver:  Solving for alpha.water, Initial residual = 0.0506295, Final residual = 1.91037e-10, No Iterations 5
Phase-1 volume fraction = 0.000627112  Min(alpha.water) = -1.92151e-39  Max(alpha.water) = 1
MULES: Correcting alpha.water
MULES: Correcting alpha.water
Phase-1 volume fraction = 0.000627112  Min(alpha.water) = -4.03389e-21  Max(alpha.water) = 1
smoothSolver:  Solving for alpha.water, Initial residual = 0.0457189, Final residual = 2.37711e-10, No Iterations 5
Phase-1 volume fraction = 0.000697374  Min(alpha.water) = -3.12359e-24  Max(alpha.water) = 1
MULES: Correcting alpha.water
MULES: Correcting alpha.water
Phase-1 volume fraction = 0.000697374  Min(alpha.water) = -7.04105e-21  Max(alpha.water) = 1
diagonalPBiCGStab:  Solving for p_rgh, Initial residual = 0.083488, Final residual = 0.00230776, No Iterations 50
diagonalPBiCGStab:  Solving for p_rgh, Initial residual = 0.00904378, Final residual = 0.00195828, No Iterations 50
diagonalPBiCGStab:  Solving for p_rgh, Initial residual = 0.00348073, Final residual = 0.00147589, No Iterations 50
diagonalPBiCGStab:  Solving for p_rgh, Initial residual = 0.00379201, Final residual = 0.00108675, No Iterations 50
time step continuity errors : sum local = 3.83515e-05, global = 3.57746e-05, cumulative = 2.74728e-05
diagonalPBiCGStab:  Solving for p_rgh, Initial residual = 0.00807047, Final residual = 0.00157263, No Iterations 50
diagonalPBiCGStab:  Solving for p_rgh, Initial residual = 0.00354573, Final residual = 0.00126099, No Iterations 50
diagonalPBiCGStab:  Solving for p_rgh, Initial residual = 0.00316479, Final residual = 0.000942, No Iterations 50
diagonalPBiCGStab:  Solving for p_rgh, Initial residual = 0.00208832, Final residual = 0.000920868, No Iterations 50
time step continuity errors : sum local = 2.42765e-05, global = 2.08147e-05, cumulative = 4.82874e-05
diagonalPBiCGStab:  Solving for p_rgh, Initial residual = 0.00470446, Final residual = 0.000695649, No Iterations 50
diagonalPBiCGStab:  Solving for p_rgh, Initial residual = 0.00182071, Final residual = 0.000807887, No Iterations 50
diagonalPBiCGStab:  Solving for p_rgh, Initial residual = 0.00170376, Final residual = 0.000572046, No Iterations 50
diagonalPBiCGStab:  Solving for p_rgh, Initial residual = 0.0012807, Final residual = 0.000691942, No Iterations 50
time step continuity errors : sum local = 1.39194e-05, global = 8.80789e-06, cumulative = 5.70953e-05
PIMPLE: iteration 5
smoothSolver:  Solving for alpha.water, Initial residual = 0.224822, Final residual = 4.23289e-10, No Iterations 5
Phase-1 volume fraction = 0.000416328  Min(alpha.water) = -2.12291e-35  Max(alpha.water) = 1
MULES: Correcting alpha.water
MULES: Correcting alpha.water
Phase-1 volume fraction = 0.000416328  Min(alpha.water) = -2.12291e-35  Max(alpha.water) = 1
smoothSolver:  Solving for alpha.water, Initial residual = 0.0647039, Final residual = 7.02598e-09, No Iterations 4
Phase-1 volume fraction = 0.000486594  Min(alpha.water) = -7.25794e-37  Max(alpha.water) = 1
MULES: Correcting alpha.water
MULES: Correcting alpha.water
Phase-1 volume fraction = 0.000486594  Min(alpha.water) = -7.25794e-37  Max(alpha.water) = 1
smoothSolver:  Solving for alpha.water, Initial residual = 0.0565677, Final residual = 9.27224e-09, No Iterations 4
Phase-1 volume fraction = 0.00055686  Min(alpha.water) = -5.97684e-37  Max(alpha.water) = 1
MULES: Correcting alpha.water
MULES: Correcting alpha.water
Phase-1 volume fraction = 0.00055686  Min(alpha.water) = -2.28126e-30  Max(alpha.water) = 1
smoothSolver:  Solving for alpha.water, Initial residual = 0.0505361, Final residual = 2.38397e-10, No Iterations 5
Phase-1 volume fraction = 0.000627126  Min(alpha.water) = -4.82941e-37  Max(alpha.water) = 1
MULES: Correcting alpha.water
MULES: Correcting alpha.water
Phase-1 volume fraction = 0.000627126  Min(alpha.water) = -2.249e-34  Max(alpha.water) = 1
smoothSolver:  Solving for alpha.water, Initial residual = 0.0456368, Final residual = 2.9792e-10, No Iterations 5
Phase-1 volume fraction = 0.000697393  Min(alpha.water) = -3.77609e-37  Max(alpha.water) = 1
MULES: Correcting alpha.water
MULES: Correcting alpha.water
Phase-1 volume fraction = 0.000697393  Min(alpha.water) = -1.65307e-33  Max(alpha.water) = 1
diagonalPBiCGStab:  Solving for p_rgh, Initial residual = 0.122886, Final residual = 0.0702129, No Iterations 50
diagonalPBiCGStab:  Solving for p_rgh, Initial residual = 0.0529398, Final residual = 0.00959885, No Iterations 50
diagonalPBiCGStab:  Solving for p_rgh, Initial residual = 0.0270851, Final residual = 0.00433289, No Iterations 50
diagonalPBiCGStab:  Solving for p_rgh, Initial residual = 0.0103979, Final residual = 0.00196628, No Iterations 50
time step continuity errors : sum local = 6.56078e-05, global = -1.48405e-05, cumulative = 4.22549e-05
diagonalPBiCGStab:  Solving for p_rgh, Initial residual = 0.00775443, Final residual = 0.00149753, No Iterations 50
diagonalPBiCGStab:  Solving for p_rgh, Initial residual = 0.00370323, Final residual = 0.000773036, No Iterations 50
diagonalPBiCGStab:  Solving for p_rgh, Initial residual = 0.00180268, Final residual = 0.000314909, No Iterations 50
diagonalPBiCGStab:  Solving for p_rgh, Initial residual = 0.000865674, Final residual = 0.000211529, No Iterations 50
time step continuity errors : sum local = 7.80051e-06, global = -4.49619e-06, cumulative = 3.77587e-05
diagonalPBiCGStab:  Solving for p_rgh, Initial residual = 0.00197631, Final residual = 0.00021997, No Iterations 50
diagonalPBiCGStab:  Solving for p_rgh, Initial residual = 0.000781057, Final residual = 0.000122665, No Iterations 50
diagonalPBiCGStab:  Solving for p_rgh, Initial residual = 0.000405264, Final residual = 9.26259e-05, No Iterations 24
diagonalPBiCGStab:  Solving for p_rgh, Initial residual = 0.000203567, Final residual = 7.11382e-05, No Iterations 50
time step continuity errors : sum local = 2.65733e-06, global = -2.13253e-06, cumulative = 3.56261e-05
ExecutionTime = 153.24 s  ClockTime = 153 s

Courant Number mean: 0.0637315 max: 11.217
Interface Courant Number mean: 0.00217809 max: 3.40326
Time = 0.00015

PIMPLE: iteration 1
cellVolumeWeight : detected 3 mesh regions

    zone:0 nCells:703766
    zone:1 nCells:8512
    zone:2 nCells:11823
Marking patch-cells on zone 0
Marking patch-cells on zone 1
Marking patch-cells on zone 2

After patch analysis : nCells : 724101
    other  : 646608
    patch  : 70582
    overset: 6911

Creating mesh-to-mesh addressing for region0 and region0 regions using cellVolumeWeight
meshToMesh: Using AABBTree method
    Overlap volume: 7.18046e-10
Creating mesh-to-mesh addressing for region0 and region0 regions using cellVolumeWeight
meshToMesh: Using AABBTree method
    Overlap volume: 2.62712e-09
Creating mesh-to-mesh addressing for region0 and region0 regions using cellVolumeWeight
    Overlap volume: 4.50388e-11
cellVolumeWeight : detected 34 mesh regions after overset

Front : fraction:1 size:20797
Overset analysis : nCells : 724101
    calculated   : 700142
    interpolated : 15434
    hole         : 8525

Execution time for mesh.update() = 12.25 s
smoothSolver:  Solving for alpha.water, Initial residual = 0.0432566, Final residual = 4.36132e-10, No Iterations 5
Phase-1 volume fraction = 0.000769596  Min(alpha.water) = -2.30575e-37  Max(alpha.water) = 1
MULES: Correcting alpha.water
MULES: Correcting alpha.water
Phase-1 volume fraction = 0.000769596  Min(alpha.water) = -6.27318e-18  Max(alpha.water) = 1
smoothSolver:  Solving for alpha.water, Initial residual = 0.0398688, Final residual = 4.68795e-10, No Iterations 5
Phase-1 volume fraction = 0.000842099  Min(alpha.water) = -7.76462e-38  Max(alpha.water) = 1
MULES: Correcting alpha.water
MULES: Correcting alpha.water
Phase-1 volume fraction = 0.000842099  Min(alpha.water) = -1.63311e-14  Max(alpha.water) = 1
smoothSolver:  Solving for alpha.water, Initial residual = 0.0373341, Final residual = 4.32786e-10, No Iterations 5
Phase-1 volume fraction = 0.000914893  Min(alpha.water) = -8.07799e-39  Max(alpha.water) = 1
MULES: Correcting alpha.water
MULES: Correcting alpha.water
Phase-1 volume fraction = 0.000914893  Min(alpha.water) = -4.62133e-14  Max(alpha.water) = 1
smoothSolver:  Solving for alpha.water, Initial residual = 0.0351973, Final residual = 3.6907e-10, No Iterations 5
Phase-1 volume fraction = 0.00098796  Min(alpha.water) = -7.42835e-39  Max(alpha.water) = 1
MULES: Correcting alpha.water
MULES: Correcting alpha.water
Phase-1 volume fraction = 0.00098796  Min(alpha.water) = -1.52983e-12  Max(alpha.water) = 1
smoothSolver:  Solving for alpha.water, Initial residual = 0.0333606, Final residual = 3.13893e-10, No Iterations 5
Phase-1 volume fraction = 0.00106127  Min(alpha.water) = -6.71574e-39  Max(alpha.water) = 1
MULES: Correcting alpha.water
MULES: Correcting alpha.water
Phase-1 volume fraction = 0.00106127  Min(alpha.water) = -7.47632e-12  Max(alpha.water) = 1
diagonalPBiCGStab:  Solving for p_rgh, Initial residual = 0.0608423, Final residual = 0.00350843, No Iterations 50
diagonalPBiCGStab:  Solving for p_rgh, Initial residual = 0.0116062, Final residual = 0.00275526, No Iterations 50
diagonalPBiCGStab:  Solving for p_rgh, Initial residual = 0.00459574, Final residual = 0.00349541, No Iterations 50
diagonalPBiCGStab:  Solving for p_rgh, Initial residual = 0.00442864, Final residual = 0.00150955, No Iterations 50
time step continuity errors : sum local = 0.000106413, global = -8.94026e-05, cumulative = -5.37765e-05
diagonalPBiCGStab:  Solving for p_rgh, Initial residual = 0.00759371, Final residual = 0.00233359, No Iterations 50
diagonalPBiCGStab:  Solving for p_rgh, Initial residual = 0.00388601, Final residual = 0.000969164, No Iterations 50
diagonalPBiCGStab:  Solving for p_rgh, Initial residual = 0.00170997, Final residual = 0.000701482, No Iterations 50
diagonalPBiCGStab:  Solving for p_rgh, Initial residual = 0.00128911, Final residual = 0.000474013, No Iterations 50
time step continuity errors : sum local = 4.50139e-05, global = -4.08291e-05, cumulative = -9.46055e-05
diagonalPBiCGStab:  Solving for p_rgh, Initial residual = 0.00263833, Final residual = 0.000371147, No Iterations 50
diagonalPBiCGStab:  Solving for p_rgh, Initial residual = 0.000991327, Final residual = 0.00021626, No Iterations 50
diagonalPBiCGStab:  Solving for p_rgh, Initial residual = 0.000433199, Final residual = 0.000281305, No Iterations 50
diagonalPBiCGStab:  Solving for p_rgh, Initial residual = 0.000460976, Final residual = 0.000152758, No Iterations 50
time step continuity errors : sum local = 1.56974e-05, global = -1.43608e-05, cumulative = -0.000108966
PIMPLE: iteration 2
smoothSolver:  Solving for alpha.water, Initial residual = 0.147614, Final residual = 2.87284e-09, No Iterations 5
Phase-1 volume fraction = 0.000767856  Min(alpha.water) = -5.64098e-63  Max(alpha.water) = 1
MULES: Correcting alpha.water
MULES: Correcting alpha.water
Phase-1 volume fraction = 0.000767856  Min(alpha.water) = -6.64906e-09  Max(alpha.water) = 1
smoothSolver:  Solving for alpha.water, Initial residual = 0.0390984, Final residual = 8.10195e-10, No Iterations 5
Phase-1 volume fraction = 0.000838319  Min(alpha.water) = -1.96329e-15  Max(alpha.water) = 1
MULES: Correcting alpha.water
MULES: Correcting alpha.water
Phase-1 volume fraction = 0.000838319  Min(alpha.water) = -4.37994e-12  Max(alpha.water) = 1
smoothSolver:  Solving for alpha.water, Initial residual = 0.0358815, Final residual = 7.61213e-10, No Iterations 5
Phase-1 volume fraction = 0.000908781  Min(alpha.water) = -2.28285e-24  Max(alpha.water) = 1
MULES: Correcting alpha.water
MULES: Correcting alpha.water
Phase-1 volume fraction = 0.000908781  Min(alpha.water) = -6.68965e-21  Max(alpha.water) = 1
smoothSolver:  Solving for alpha.water, Initial residual = 0.033766, Final residual = 6.64238e-10, No Iterations 5
Phase-1 volume fraction = 0.000979244  Min(alpha.water) = -1.07315e-24  Max(alpha.water) = 1
MULES: Correcting alpha.water
MULES: Correcting alpha.water
Phase-1 volume fraction = 0.000979244  Min(alpha.water) = -3.58863e-21  Max(alpha.water) = 1
smoothSolver:  Solving for alpha.water, Initial residual = 0.0318811, Final residual = 5.78271e-10, No Iterations 5
Phase-1 volume fraction = 0.00104971  Min(alpha.water) = -6.70552e-25  Max(alpha.water) = 1
MULES: Correcting alpha.water
MULES: Correcting alpha.water
Phase-1 volume fraction = 0.00104971  Min(alpha.water) = -3.05497e-16  Max(alpha.water) = 1
diagonalPBiCGStab:  Solving for p_rgh, Initial residual = 0.0453113, Final residual = 0.00228286, No Iterations 50
diagonalPBiCGStab:  Solving for p_rgh, Initial residual = 0.00762115, Final residual = 0.00195164, No Iterations 50
diagonalPBiCGStab:  Solving for p_rgh, Initial residual = 0.00408434, Final residual = 0.00357622, No Iterations 50
diagonalPBiCGStab:  Solving for p_rgh, Initial residual = 0.00635015, Final residual = 0.00260577, No Iterations 50
time step continuity errors : sum local = 0.000181174, global = 0.000145954, cumulative = 3.6988e-05
diagonalPBiCGStab:  Solving for p_rgh, Initial residual = 0.0113699, Final residual = 0.00331926, No Iterations 50
diagonalPBiCGStab:  Solving for p_rgh, Initial residual = 0.00661249, Final residual = 0.00283188, No Iterations 50
diagonalPBiCGStab:  Solving for p_rgh, Initial residual = 0.0097361, Final residual = 0.0034323, No Iterations 50
diagonalPBiCGStab:  Solving for p_rgh, Initial residual = 0.00724718, Final residual = 0.00480976, No Iterations 50
time step continuity errors : sum local = 0.000119143, global = 8.78846e-05, cumulative = 0.000124873
diagonalPBiCGStab:  Solving for p_rgh, Initial residual = 0.0251891, Final residual = 0.00444487, No Iterations 50
diagonalPBiCGStab:  Solving for p_rgh, Initial residual = 0.0119846, Final residual = 0.0063545, No Iterations 50
diagonalPBiCGStab:  Solving for p_rgh, Initial residual = 0.0123982, Final residual = 0.0055573, No Iterations 50
diagonalPBiCGStab:  Solving for p_rgh, Initial residual = 0.00728726, Final residual = 0.00426937, No Iterations 50
time step continuity errors : sum local = 5.25087e-05, global = 3.95858e-05, cumulative = 0.000164458
PIMPLE: iteration 3
smoothSolver:  Solving for alpha.water, Initial residual = 0.148368, Final residual = 3.08169e-09, No Iterations 5
Phase-1 volume fraction = 0.000767827  Min(alpha.water) = -3.11186e-37  Max(alpha.water) = 1
MULES: Correcting alpha.water
MULES: Correcting alpha.water
Phase-1 volume fraction = 0.000767827  Min(alpha.water) = -1.1193e-09  Max(alpha.water) = 1
smoothSolver:  Solving for alpha.water, Initial residual = 0.0375088, Final residual = 8.51709e-10, No Iterations 5
Phase-1 volume fraction = 0.000838262  Min(alpha.water) = -2.4996e-37  Max(alpha.water) = 1
MULES: Correcting alpha.water
MULES: Correcting alpha.water
Phase-1 volume fraction = 0.000838262  Min(alpha.water) = -2.76408e-15  Max(alpha.water) = 1
smoothSolver:  Solving for alpha.water, Initial residual = 0.0349107, Final residual = 7.8502e-10, No Iterations 5
Phase-1 volume fraction = 0.000908697  Min(alpha.water) = -1.9335e-37  Max(alpha.water) = 1
MULES: Correcting alpha.water
MULES: Correcting alpha.water
Phase-1 volume fraction = 0.000908697  Min(alpha.water) = -8.65323e-15  Max(alpha.water) = 1
smoothSolver:  Solving for alpha.water, Initial residual = 0.0327843, Final residual = 6.71121e-10, No Iterations 5
Phase-1 volume fraction = 0.000979132  Min(alpha.water) = -1.42033e-37  Max(alpha.water) = 1
MULES: Correcting alpha.water
MULES: Correcting alpha.water
Phase-1 volume fraction = 0.000979132  Min(alpha.water) = -1.59437e-14  Max(alpha.water) = 1
smoothSolver:  Solving for alpha.water, Initial residual = 0.0310821, Final residual = 5.69132e-10, No Iterations 5
Phase-1 volume fraction = 0.00104957  Min(alpha.water) = -9.65901e-38  Max(alpha.water) = 1
MULES: Correcting alpha.water
MULES: Correcting alpha.water
Phase-1 volume fraction = 0.00104957  Min(alpha.water) = -1.0261e-14  Max(alpha.water) = 1
diagonalPBiCGStab:  Solving for p_rgh, Initial residual = 0.193905, Final residual = 0.00574655, No Iterations 50
diagonalPBiCGStab:  Solving for p_rgh, Initial residual = 0.0322927, Final residual = 0.00411876, No Iterations 50
diagonalPBiCGStab:  Solving for p_rgh, Initial residual = 0.0121359, Final residual = 0.00186154, No Iterations 50
diagonalPBiCGStab:  Solving for p_rgh, Initial residual = 0.00515396, Final residual = 0.00150228, No Iterations 50
time step continuity errors : sum local = 2.02027e-05, global = -1.62181e-05, cumulative = 0.00014824
diagonalPBiCGStab:  Solving for p_rgh, Initial residual = 0.023723, Final residual = 0.00273915, No Iterations 50
diagonalPBiCGStab:  Solving for p_rgh, Initial residual = 0.00825901, Final residual = 0.004659, No Iterations 50
diagonalPBiCGStab:  Solving for p_rgh, Initial residual = 0.0115979, Final residual = 0.00291404, No Iterations 50
diagonalPBiCGStab:  Solving for p_rgh, Initial residual = 0.00532703, Final residual = 0.00256281, No Iterations 50
time step continuity errors : sum local = 2.25931e-05, global = -1.65653e-05, cumulative = 0.000131675
diagonalPBiCGStab:  Solving for p_rgh, Initial residual = 0.0102279, Final residual = 0.00172756, No Iterations 50
diagonalPBiCGStab:  Solving for p_rgh, Initial residual = 0.00382998, Final residual = 0.00173588, No Iterations 50
diagonalPBiCGStab:  Solving for p_rgh, Initial residual = 0.00249733, Final residual = 0.00100993, No Iterations 50
diagonalPBiCGStab:  Solving for p_rgh, Initial residual = 0.0016746, Final residual = 0.000931979, No Iterations 50
time step continuity errors : sum local = 1.43645e-05, global = -1.07466e-05, cumulative = 0.000120928
PIMPLE: iteration 4
smoothSolver:  Solving for alpha.water, Initial residual = 0.144708, Final residual = 3.54643e-09, No Iterations 5
Phase-1 volume fraction = 0.00076772  Min(alpha.water) = -3.33254e-37  Max(alpha.water) = 1
MULES: Correcting alpha.water
MULES: Correcting alpha.water
Phase-1 volume fraction = 0.00076772  Min(alpha.water) = -1.94336e-09  Max(alpha.water) = 1
smoothSolver:  Solving for alpha.water, Initial residual = 0.0375659, Final residual = 9.90645e-10, No Iterations 5
Phase-1 volume fraction = 0.000838048  Min(alpha.water) = -2.91389e-37  Max(alpha.water) = 1
MULES: Correcting alpha.water
MULES: Correcting alpha.water
Phase-1 volume fraction = 0.000838048  Min(alpha.water) = -1.44822e-11  Max(alpha.water) = 1
smoothSolver:  Solving for alpha.water, Initial residual = 0.0349727, Final residual = 9.17985e-10, No Iterations 5
Phase-1 volume fraction = 0.000908376  Min(alpha.water) = -2.51219e-37  Max(alpha.water) = 1
MULES: Correcting alpha.water
MULES: Correcting alpha.water
Phase-1 volume fraction = 0.000908376  Min(alpha.water) = -2.62984e-11  Max(alpha.water) = 1
smoothSolver:  Solving for alpha.water, Initial residual = 0.0327888, Final residual = 7.91715e-10, No Iterations 5
Phase-1 volume fraction = 0.000978704  Min(alpha.water) = -2.13059e-37  Max(alpha.water) = 1
MULES: Correcting alpha.water
MULES: Correcting alpha.water
Phase-1 volume fraction = 0.000978704  Min(alpha.water) = -4.27381e-11  Max(alpha.water) = 1
smoothSolver:  Solving for alpha.water, Initial residual = 0.0309516, Final residual = 6.80097e-10, No Iterations 5
Phase-1 volume fraction = 0.00104903  Min(alpha.water) = -1.77207e-37  Max(alpha.water) = 1
MULES: Correcting alpha.water
MULES: Correcting alpha.water
Phase-1 volume fraction = 0.00104903  Min(alpha.water) = -7.51806e-11  Max(alpha.water) = 1
diagonalPBiCGStab:  Solving for p_rgh, Initial residual = 0.16614, Final residual = 0.0026573, No Iterations 50
diagonalPBiCGStab:  Solving for p_rgh, Initial residual = 0.0169455, Final residual = 0.00165217, No Iterations 50
diagonalPBiCGStab:  Solving for p_rgh, Initial residual = 0.0050606, Final residual = 0.0017739, No Iterations 50
diagonalPBiCGStab:  Solving for p_rgh, Initial residual = 0.0037434, Final residual = 0.00105464, No Iterations 50
time step continuity errors : sum local = 2.28782e-05, global = -1.94688e-05, cumulative = 0.000101459
diagonalPBiCGStab:  Solving for p_rgh, Initial residual = 0.0091509, Final residual = 0.00101607, No Iterations 50
diagonalPBiCGStab:  Solving for p_rgh, Initial residual = 0.00358218, Final residual = 0.001009, No Iterations 50
diagonalPBiCGStab:  Solving for p_rgh, Initial residual = 0.00217757, Final residual = 0.000628438, No Iterations 50
diagonalPBiCGStab:  Solving for p_rgh, Initial residual = 0.00139874, Final residual = 0.000676208, No Iterations 50
time step continuity errors : sum local = 1.88029e-05, global = -1.22129e-05, cumulative = 8.92465e-05
diagonalPBiCGStab:  Solving for p_rgh, Initial residual = 0.00296034, Final residual = 0.000339971, No Iterations 50
diagonalPBiCGStab:  Solving for p_rgh, Initial residual = 0.00118697, Final residual = 0.000433865, No Iterations 50
diagonalPBiCGStab:  Solving for p_rgh, Initial residual = 0.000831422, Final residual = 0.00023083, No Iterations 50
diagonalPBiCGStab:  Solving for p_rgh, Initial residual = 0.000531698, Final residual = 0.000259245, No Iterations 50
time step continuity errors : sum local = 8.21174e-06, global = -5.30203e-06, cumulative = 8.39445e-05
PIMPLE: iteration 5
smoothSolver:  Solving for alpha.water, Initial residual = 0.143368, Final residual = 3.82867e-09, No Iterations 5
Phase-1 volume fraction = 0.000767766  Min(alpha.water) = -2.97288e-37  Max(alpha.water) = 1
MULES: Correcting alpha.water
MULES: Correcting alpha.water
Phase-1 volume fraction = 0.000767766  Min(alpha.water) = -5.00723e-10  Max(alpha.water) = 1
smoothSolver:  Solving for alpha.water, Initial residual = 0.0381439, Final residual = 1.07494e-09, No Iterations 5
Phase-1 volume fraction = 0.000838139  Min(alpha.water) = -2.20663e-37  Max(alpha.water) = 1
MULES: Correcting alpha.water
MULES: Correcting alpha.water
Phase-1 volume fraction = 0.000838139  Min(alpha.water) = -9.67801e-12  Max(alpha.water) = 1
smoothSolver:  Solving for alpha.water, Initial residual = 0.0354542, Final residual = 1.00476e-09, No Iterations 5
Phase-1 volume fraction = 0.000908512  Min(alpha.water) = -1.46729e-37  Max(alpha.water) = 1
MULES: Correcting alpha.water
MULES: Correcting alpha.water
Phase-1 volume fraction = 0.000908512  Min(alpha.water) = -1.86154e-11  Max(alpha.water) = 1
smoothSolver:  Solving for alpha.water, Initial residual = 0.0333569, Final residual = 8.81286e-10, No Iterations 5
Phase-1 volume fraction = 0.000978886  Min(alpha.water) = -7.56894e-38  Max(alpha.water) = 1
MULES: Correcting alpha.water
MULES: Correcting alpha.water
Phase-1 volume fraction = 0.000978886  Min(alpha.water) = -2.90503e-11  Max(alpha.water) = 1
smoothSolver:  Solving for alpha.water, Initial residual = 0.0315054, Final residual = 7.7679e-10, No Iterations 5
Phase-1 volume fraction = 0.00104926  Min(alpha.water) = -8.56394e-39  Max(alpha.water) = 1
MULES: Correcting alpha.water
MULES: Correcting alpha.water
Phase-1 volume fraction = 0.00104926  Min(alpha.water) = -4.08503e-11  Max(alpha.water) = 1
diagonalPBiCGStab:  Solving for p_rgh, Initial residual = 0.0662668, Final residual = 0.000730391, No Iterations 50
diagonalPBiCGStab:  Solving for p_rgh, Initial residual = 0.0094211, Final residual = 0.00123544, No Iterations 50
diagonalPBiCGStab:  Solving for p_rgh, Initial residual = 0.00312822, Final residual = 0.000689128, No Iterations 50
diagonalPBiCGStab:  Solving for p_rgh, Initial residual = 0.00204227, Final residual = 0.000343053, No Iterations 50
time step continuity errors : sum local = 1.13447e-05, global = 7.06455e-06, cumulative = 9.1009e-05
diagonalPBiCGStab:  Solving for p_rgh, Initial residual = 0.00538542, Final residual = 0.000439868, No Iterations 50
diagonalPBiCGStab:  Solving for p_rgh, Initial residual = 0.00203604, Final residual = 0.000381101, No Iterations 50
diagonalPBiCGStab:  Solving for p_rgh, Initial residual = 0.00111233, Final residual = 0.000288357, No Iterations 50
diagonalPBiCGStab:  Solving for p_rgh, Initial residual = 0.000710431, Final residual = 0.000273222, No Iterations 50
time step continuity errors : sum local = 8.49507e-06, global = 6.36715e-06, cumulative = 9.73762e-05
diagonalPBiCGStab:  Solving for p_rgh, Initial residual = 0.00229555, Final residual = 0.000233185, No Iterations 50
diagonalPBiCGStab:  Solving for p_rgh, Initial residual = 0.000918298, Final residual = 0.000424236, No Iterations 50
diagonalPBiCGStab:  Solving for p_rgh, Initial residual = 0.000991743, Final residual = 0.000129387, No Iterations 50
diagonalPBiCGStab:  Solving for p_rgh, Initial residual = 0.000499913, Final residual = 0.000112774, No Iterations 50
time step continuity errors : sum local = 3.23849e-06, global = 2.63018e-06, cumulative = 0.000100006
ExecutionTime = 230.1 s  ClockTime = 230 s

Courant Number mean: 0.0651723 max: 10.8863
Interface Courant Number mean: 0.00260666 max: 9.31376
Time = 0.0002

PIMPLE: iteration 1
cellVolumeWeight : detected 3 mesh regions

    zone:0 nCells:703766
    zone:1 nCells:8512
    zone:2 nCells:11823
Marking patch-cells on zone 0
Marking patch-cells on zone 1
Marking patch-cells on zone 2

After patch analysis : nCells : 724101
    other  : 646608
    patch  : 70582
    overset: 6911

Creating mesh-to-mesh addressing for region0 and region0 regions using cellVolumeWeight
meshToMesh: Using AABBTree method
    Overlap volume: 7.17972e-10
Creating mesh-to-mesh addressing for region0 and region0 regions using cellVolumeWeight
meshToMesh: Using AABBTree method
    Overlap volume: 2.62712e-09
Creating mesh-to-mesh addressing for region0 and region0 regions using cellVolumeWeight
    Overlap volume: 4.48506e-11
cellVolumeWeight : detected 34 mesh regions after overset

Front : fraction:1 size:20895
Overset analysis : nCells : 724101
    calculated   : 700085
    interpolated : 15545
    hole         : 8471

Execution time for mesh.update() = 12.22 s
smoothSolver:  Solving for alpha.water, Initial residual = 0.0307073, Final residual = 7.35275e-10, No Iterations 5
Phase-1 volume fraction = 0.00112008  Min(alpha.water) = -4.25542e-16  Max(alpha.water) = 1
MULES: Correcting alpha.water
MULES: Correcting alpha.water
Phase-1 volume fraction = 0.00112008  Min(alpha.water) = -4.58818e-11  Max(alpha.water) = 1
smoothSolver:  Solving for alpha.water, Initial residual = 0.0290675, Final residual = 7.00005e-10, No Iterations 5
Phase-1 volume fraction = 0.00119084  Min(alpha.water) = -8.04341e-39  Max(alpha.water) = 1
MULES: Correcting alpha.water
MULES: Correcting alpha.water
Phase-1 volume fraction = 0.00119084  Min(alpha.water) = -2.70117e-11  Max(alpha.water) = 1
smoothSolver:  Solving for alpha.water, Initial residual = 0.0275248, Final residual = 6.53219e-10, No Iterations 5
Phase-1 volume fraction = 0.00126154  Min(alpha.water) = -7.79368e-39  Max(alpha.water) = 1
MULES: Correcting alpha.water
MULES: Correcting alpha.water
Phase-1 volume fraction = 0.00126154  Min(alpha.water) = -5.65318e-11  Max(alpha.water) = 1
smoothSolver:  Solving for alpha.water, Initial residual = 0.0261429, Final residual = 5.59444e-10, No Iterations 5
Phase-1 volume fraction = 0.00133219  Min(alpha.water) = -7.55464e-39  Max(alpha.water) = 1
MULES: Correcting alpha.water
MULES: Correcting alpha.water
Phase-1 volume fraction = 0.00133219  Min(alpha.water) = -9.10474e-11  Max(alpha.water) = 1
smoothSolver:  Solving for alpha.water, Initial residual = 0.0248971, Final residual = 4.33252e-10, No Iterations 5
Phase-1 volume fraction = 0.00140279  Min(alpha.water) = -7.32644e-39  Max(alpha.water) = 1
MULES: Correcting alpha.water
MULES: Correcting alpha.water
Phase-1 volume fraction = 0.00140279  Min(alpha.water) = -1.36097e-10  Max(alpha.water) = 1
diagonalPBiCGStab:  Solving for p_rgh, Initial residual = 0.0878419, Final residual = 0.00126455, No Iterations 50
diagonalPBiCGStab:  Solving for p_rgh, Initial residual = 0.0100058, Final residual = 0.000755738, No Iterations 50
diagonalPBiCGStab:  Solving for p_rgh, Initial residual = 0.00374741, Final residual = 0.000504998, No Iterations 50
diagonalPBiCGStab:  Solving for p_rgh, Initial residual = 0.00156462, Final residual = 0.00056856, No Iterations 50
time step continuity errors : sum local = 1.52958e-05, global = 9.60804e-06, cumulative = 0.000109614
diagonalPBiCGStab:  Solving for p_rgh, Initial residual = 0.0102471, Final residual = 0.000595607, No Iterations 50
diagonalPBiCGStab:  Solving for p_rgh, Initial residual = 0.00282078, Final residual = 0.000502037, No Iterations 50
diagonalPBiCGStab:  Solving for p_rgh, Initial residual = 0.00113256, Final residual = 0.00043006, No Iterations 50
diagonalPBiCGStab:  Solving for p_rgh, Initial residual = 0.00117093, Final residual = 0.000413029, No Iterations 50
time step continuity errors : sum local = 9.59496e-06, global = 6.31105e-06, cumulative = 0.000115925
diagonalPBiCGStab:  Solving for p_rgh, Initial residual = 0.00465467, Final residual = 0.00499303, No Iterations 50
diagonalPBiCGStab:  Solving for p_rgh, Initial residual = 0.0064965, Final residual = 0.000284525, No Iterations 50
diagonalPBiCGStab:  Solving for p_rgh, Initial residual = 0.00208347, Final residual = 0.000146716, No Iterations 50
diagonalPBiCGStab:  Solving for p_rgh, Initial residual = 0.000626431, Final residual = 0.000182835, No Iterations 50
time step continuity errors : sum local = 3.85473e-06, global = 2.43529e-06, cumulative = 0.000118361
PIMPLE: iteration 2
smoothSolver:  Solving for alpha.water, Initial residual = 0.10669, Final residual = 2.8577e-09, No Iterations 5
Phase-1 volume fraction = 0.00111967  Min(alpha.water) = -3.80792e-15  Max(alpha.water) = 1
MULES: Correcting alpha.water
MULES: Correcting alpha.water
Phase-1 volume fraction = 0.00111967  Min(alpha.water) = -1.3828e-10  Max(alpha.water) = 1
smoothSolver:  Solving for alpha.water, Initial residual = 0.0268529, Final residual = 7.18281e-10, No Iterations 5
Phase-1 volume fraction = 0.00119009  Min(alpha.water) = -3.09208e-15  Max(alpha.water) = 1
MULES: Correcting alpha.water
MULES: Correcting alpha.water
Phase-1 volume fraction = 0.00119009  Min(alpha.water) = -8.57731e-12  Max(alpha.water) = 1
smoothSolver:  Solving for alpha.water, Initial residual = 0.0254201, Final residual = 7.00864e-10, No Iterations 5
Phase-1 volume fraction = 0.00126051  Min(alpha.water) = -1.95149e-15  Max(alpha.water) = 1
MULES: Correcting alpha.water
MULES: Correcting alpha.water
Phase-1 volume fraction = 0.00126051  Min(alpha.water) = -1.38783e-11  Max(alpha.water) = 1
smoothSolver:  Solving for alpha.water, Initial residual = 0.0241045, Final residual = 6.39391e-10, No Iterations 5
Phase-1 volume fraction = 0.00133092  Min(alpha.water) = -4.55928e-16  Max(alpha.water) = 1
MULES: Correcting alpha.water
MULES: Correcting alpha.water
Phase-1 volume fraction = 0.00133092  Min(alpha.water) = -2.07277e-11  Max(alpha.water) = 1
smoothSolver:  Solving for alpha.water, Initial residual = 0.0230175, Final residual = 5.36802e-10, No Iterations 5
Phase-1 volume fraction = 0.00140134  Min(alpha.water) = -2.38506e-16  Max(alpha.water) = 1
MULES: Correcting alpha.water
MULES: Correcting alpha.water
Phase-1 volume fraction = 0.00140134  Min(alpha.water) = -2.95836e-11  Max(alpha.water) = 1
diagonalPBiCGStab:  Solving for p_rgh, Initial residual = 0.133651, Final residual = 0.00132579, No Iterations 15
diagonalPBiCGStab:  Solving for p_rgh, Initial residual = 0.0129846, Final residual = 0.00114733, No Iterations 50
diagonalPBiCGStab:  Solving for p_rgh, Initial residual = 0.0044182, Final residual = 0.000135338, No Iterations 50
diagonalPBiCGStab:  Solving for p_rgh, Initial residual = 0.00153979, Final residual = 9.30005e-05, No Iterations 36
time step continuity errors : sum local = 1.9571e-06, global = -9.68579e-07, cumulative = 0.000117392
diagonalPBiCGStab:  Solving for p_rgh, Initial residual = 0.00861386, Final residual = 0.000168441, No Iterations 50
diagonalPBiCGStab:  Solving for p_rgh, Initial residual = 0.00198456, Final residual = 0.000111684, No Iterations 50
diagonalPBiCGStab:  Solving for p_rgh, Initial residual = 0.000621816, Final residual = 9.87489e-05, No Iterations 29
diagonalPBiCGStab:  Solving for p_rgh, Initial residual = 0.000279933, Final residual = 9.96718e-05, No Iterations 7
time step continuity errors : sum local = 2.12048e-06, global = -1.85508e-06, cumulative = 0.000115537
diagonalPBiCGStab:  Solving for p_rgh, Initial residual = 0.00295267, Final residual = 0.000107503, No Iterations 50
diagonalPBiCGStab:  Solving for p_rgh, Initial residual = 0.000606988, Final residual = 0.000206992, No Iterations 50
diagonalPBiCGStab:  Solving for p_rgh, Initial residual = 0.000507202, Final residual = 9.78893e-05, No Iterations 31
diagonalPBiCGStab:  Solving for p_rgh, Initial residual = 0.000249369, Final residual = 5.83575e-05, No Iterations 50
time step continuity errors : sum local = 1.2803e-06, global = -1.14597e-06, cumulative = 0.000114391
PIMPLE: iteration 3
smoothSolver:  Solving for alpha.water, Initial residual = 0.10461, Final residual = 3.21159e-09, No Iterations 5
Phase-1 volume fraction = 0.00111974  Min(alpha.water) = -4.107e-15  Max(alpha.water) = 1
MULES: Correcting alpha.water
MULES: Correcting alpha.water
Phase-1 volume fraction = 0.00111974  Min(alpha.water) = -2.43617e-10  Max(alpha.water) = 1
smoothSolver:  Solving for alpha.water, Initial residual = 0.0278101, Final residual = 8.47754e-10, No Iterations 5
Phase-1 volume fraction = 0.00119023  Min(alpha.water) = -4.00977e-15  Max(alpha.water) = 1
MULES: Correcting alpha.water
MULES: Correcting alpha.water
Phase-1 volume fraction = 0.00119023  Min(alpha.water) = -4.29547e-11  Max(alpha.water) = 1
smoothSolver:  Solving for alpha.water, Initial residual = 0.0262852, Final residual = 8.41587e-10, No Iterations 5
Phase-1 volume fraction = 0.00126072  Min(alpha.water) = -3.91347e-15  Max(alpha.water) = 1
MULES: Correcting alpha.water
MULES: Correcting alpha.water
Phase-1 volume fraction = 0.00126072  Min(alpha.water) = -7.45131e-11  Max(alpha.water) = 1
smoothSolver:  Solving for alpha.water, Initial residual = 0.0250219, Final residual = 7.85649e-10, No Iterations 5
Phase-1 volume fraction = 0.0013312  Min(alpha.water) = -3.81788e-15  Max(alpha.water) = 1
MULES: Correcting alpha.water
MULES: Correcting alpha.water
Phase-1 volume fraction = 0.0013312  Min(alpha.water) = -1.19168e-10  Max(alpha.water) = 1
smoothSolver:  Solving for alpha.water, Initial residual = 0.0240448, Final residual = 6.80651e-10, No Iterations 5
Phase-1 volume fraction = 0.00140169  Min(alpha.water) = -3.72268e-15  Max(alpha.water) = 1
MULES: Correcting alpha.water
MULES: Correcting alpha.water
Phase-1 volume fraction = 0.00140169  Min(alpha.water) = -1.96344e-10  Max(alpha.water) = 1
diagonalPBiCGStab:  Solving for p_rgh, Initial residual = 0.0963038, Final residual = 0.000769109, No Iterations 19
diagonalPBiCGStab:  Solving for p_rgh, Initial residual = 0.00974255, Final residual = 0.000287521, No Iterations 50
diagonalPBiCGStab:  Solving for p_rgh, Initial residual = 0.00260746, Final residual = 0.00021435, No Iterations 50
diagonalPBiCGStab:  Solving for p_rgh, Initial residual = 0.00109991, Final residual = 0.000199919, No Iterations 50
time step continuity errors : sum local = 4.5901e-06, global = -3.87959e-06, cumulative = 0.000110512
diagonalPBiCGStab:  Solving for p_rgh, Initial residual = 0.00831875, Final residual = 0.000235366, No Iterations 50
diagonalPBiCGStab:  Solving for p_rgh, Initial residual = 0.00201563, Final residual = 0.000164894, No Iterations 50
diagonalPBiCGStab:  Solving for p_rgh, Initial residual = 0.000709433, Final residual = 0.000179945, No Iterations 50
diagonalPBiCGStab:  Solving for p_rgh, Initial residual = 0.000463007, Final residual = 0.000130469, No Iterations 50
time step continuity errors : sum local = 3.09316e-06, global = -2.6805e-06, cumulative = 0.000107831
diagonalPBiCGStab:  Solving for p_rgh, Initial residual = 0.00285022, Final residual = 9.91075e-05, No Iterations 41
diagonalPBiCGStab:  Solving for p_rgh, Initial residual = 0.000854508, Final residual = 9.9797e-05, No Iterations 19
diagonalPBiCGStab:  Solving for p_rgh, Initial residual = 0.000288476, Final residual = 9.97382e-05, No Iterations 11
diagonalPBiCGStab:  Solving for p_rgh, Initial residual = 0.000169312, Final residual = 0.00012516, No Iterations 50
time step continuity errors : sum local = 3.00239e-06, global = -1.11198e-06, cumulative = 0.000106719
PIMPLE: iteration 4
smoothSolver:  Solving for alpha.water, Initial residual = 0.105826, Final residual = 3.98951e-09, No Iterations 5
Phase-1 volume fraction = 0.00111985  Min(alpha.water) = -4.12222e-15  Max(alpha.water) = 1
MULES: Correcting alpha.water
MULES: Correcting alpha.water
Phase-1 volume fraction = 0.00111985  Min(alpha.water) = -1.54418e-09  Max(alpha.water) = 1
smoothSolver:  Solving for alpha.water, Initial residual = 0.0275192, Final residual = 1.09899e-09, No Iterations 5
Phase-1 volume fraction = 0.00119044  Min(alpha.water) = -4.04173e-15  Max(alpha.water) = 1
MULES: Correcting alpha.water
MULES: Correcting alpha.water
Phase-1 volume fraction = 0.00119044  Min(alpha.water) = -4.75324e-10  Max(alpha.water) = 1
smoothSolver:  Solving for alpha.water, Initial residual = 0.0259908, Final residual = 1.11092e-09, No Iterations 5
Phase-1 volume fraction = 0.00126103  Min(alpha.water) = -3.96182e-15  Max(alpha.water) = 1
MULES: Correcting alpha.water
MULES: Correcting alpha.water
Phase-1 volume fraction = 0.00126103  Min(alpha.water) = -3.28025e-10  Max(alpha.water) = 1
smoothSolver:  Solving for alpha.water, Initial residual = 0.0247463, Final residual = 1.05911e-09, No Iterations 5
Phase-1 volume fraction = 0.00133162  Min(alpha.water) = -3.8823e-15  Max(alpha.water) = 1
MULES: Correcting alpha.water
MULES: Correcting alpha.water
Phase-1 volume fraction = 0.00133162  Min(alpha.water) = -4.48223e-10  Max(alpha.water) = 1
smoothSolver:  Solving for alpha.water, Initial residual = 0.0236117, Final residual = 9.38972e-10, No Iterations 5
Phase-1 volume fraction = 0.00140221  Min(alpha.water) = -3.80291e-15  Max(alpha.water) = 1
MULES: Correcting alpha.water
MULES: Correcting alpha.water
Phase-1 volume fraction = 0.00140221  Min(alpha.water) = -5.833e-10  Max(alpha.water) = 1
diagonalPBiCGStab:  Solving for p_rgh, Initial residual = 0.140442, Final residual = 0.00189043, No Iterations 50
diagonalPBiCGStab:  Solving for p_rgh, Initial residual = 0.0156233, Final residual = 0.00178969, No Iterations 50
diagonalPBiCGStab:  Solving for p_rgh, Initial residual = 0.00463305, Final residual = 0.00212257, No Iterations 50
diagonalPBiCGStab:  Solving for p_rgh, Initial residual = 0.00328726, Final residual = 0.00111745, No Iterations 50
time step continuity errors : sum local = 3.51774e-05, global = -3.01301e-05, cumulative = 7.65889e-05
diagonalPBiCGStab:  Solving for p_rgh, Initial residual = 0.00709565, Final residual = 0.00120259, No Iterations 50
diagonalPBiCGStab:  Solving for p_rgh, Initial residual = 0.0027992, Final residual = 0.000724782, No Iterations 50
diagonalPBiCGStab:  Solving for p_rgh, Initial residual = 0.00150623, Final residual = 0.000750551, No Iterations 50
diagonalPBiCGStab:  Solving for p_rgh, Initial residual = 0.00124941, Final residual = 0.000431542, No Iterations 50
time step continuity errors : sum local = 1.70334e-05, global = -1.5428e-05, cumulative = 6.11609e-05
diagonalPBiCGStab:  Solving for p_rgh, Initial residual = 0.00256218, Final residual = 0.000225724, No Iterations 50
diagonalPBiCGStab:  Solving for p_rgh, Initial residual = 0.000858424, Final residual = 0.000244201, No Iterations 50
diagonalPBiCGStab:  Solving for p_rgh, Initial residual = 0.000482577, Final residual = 0.000203215, No Iterations 50
diagonalPBiCGStab:  Solving for p_rgh, Initial residual = 0.000386995, Final residual = 0.000152847, No Iterations 50
time step continuity errors : sum local = 6.47165e-06, global = -5.30682e-06, cumulative = 5.58541e-05
PIMPLE: iteration 5
smoothSolver:  Solving for alpha.water, Initial residual = 0.106267, Final residual = 4.63805e-09, No Iterations 5
Phase-1 volume fraction = 0.00111977  Min(alpha.water) = -2.36789e-19  Max(alpha.water) = 1
MULES: Correcting alpha.water
MULES: Correcting alpha.water
Phase-1 volume fraction = 0.00111977  Min(alpha.water) = -7.02925e-12  Max(alpha.water) = 1
smoothSolver:  Solving for alpha.water, Initial residual = 0.0278311, Final residual = 1.37937e-09, No Iterations 5
Phase-1 volume fraction = 0.00119028  Min(alpha.water) = -7.37186e-39  Max(alpha.water) = 1
MULES: Correcting alpha.water
MULES: Correcting alpha.water
Phase-1 volume fraction = 0.00119028  Min(alpha.water) = -5.01249e-13  Max(alpha.water) = 1
smoothSolver:  Solving for alpha.water, Initial residual = 0.0263755, Final residual = 1.37483e-09, No Iterations 5
Phase-1 volume fraction = 0.00126079  Min(alpha.water) = -6.7666e-39  Max(alpha.water) = 1
MULES: Correcting alpha.water
MULES: Correcting alpha.water
Phase-1 volume fraction = 0.00126079  Min(alpha.water) = -6.39481e-13  Max(alpha.water) = 1
smoothSolver:  Solving for alpha.water, Initial residual = 0.0251008, Final residual = 1.32659e-09, No Iterations 5
Phase-1 volume fraction = 0.0013313  Min(alpha.water) = -6.13575e-39  Max(alpha.water) = 1
MULES: Correcting alpha.water
MULES: Correcting alpha.water
Phase-1 volume fraction = 0.0013313  Min(alpha.water) = -8.37385e-13  Max(alpha.water) = 1
smoothSolver:  Solving for alpha.water, Initial residual = 0.0240446, Final residual = 1.21279e-09, No Iterations 5
Phase-1 volume fraction = 0.0014018  Min(alpha.water) = -5.4459e-39  Max(alpha.water) = 1
MULES: Correcting alpha.water
MULES: Correcting alpha.water
Phase-1 volume fraction = 0.0014018  Min(alpha.water) = -1.10454e-12  Max(alpha.water) = 1
diagonalPBiCGStab:  Solving for p_rgh, Initial residual = 0.0623885, Final residual = 0.00135146, No Iterations 50
diagonalPBiCGStab:  Solving for p_rgh, Initial residual = 0.00730161, Final residual = 0.000896001, No Iterations 50
diagonalPBiCGStab:  Solving for p_rgh, Initial residual = 0.00230603, Final residual = 0.00207553, No Iterations 50
diagonalPBiCGStab:  Solving for p_rgh, Initial residual = 0.00452678, Final residual = 0.00113276, No Iterations 50
time step continuity errors : sum local = 3.71249e-05, global = 2.5455e-05, cumulative = 8.13091e-05
diagonalPBiCGStab:  Solving for p_rgh, Initial residual = 0.00909604, Final residual = 0.00120286, No Iterations 50
diagonalPBiCGStab:  Solving for p_rgh, Initial residual = 0.00338264, Final residual = 0.000706981, No Iterations 50
diagonalPBiCGStab:  Solving for p_rgh, Initial residual = 0.00250223, Final residual = 0.000662731, No Iterations 50
diagonalPBiCGStab:  Solving for p_rgh, Initial residual = 0.0014251, Final residual = 0.000855941, No Iterations 50
time step continuity errors : sum local = 2.18304e-05, global = 1.3419e-05, cumulative = 9.47281e-05
diagonalPBiCGStab:  Solving for p_rgh, Initial residual = 0.00468181, Final residual = 0.000423943, No Iterations 50
diagonalPBiCGStab:  Solving for p_rgh, Initial residual = 0.00168197, Final residual = 0.000607706, No Iterations 50
diagonalPBiCGStab:  Solving for p_rgh, Initial residual = 0.00132195, Final residual = 0.000340214, No Iterations 50
diagonalPBiCGStab:  Solving for p_rgh, Initial residual = 0.000775801, Final residual = 0.000405994, No Iterations 50
time step continuity errors : sum local = 8.81444e-06, global = 4.76038e-06, cumulative = 9.94885e-05
ExecutionTime = 303.85 s  ClockTime = 304 s

Courant Number mean: 0.0690621 max: 10.4716
Interface Courant Number mean: 0.00297998 max: 8.23963
Time = 0.00025

PIMPLE: iteration 1
cellVolumeWeight : detected 3 mesh regions

    zone:0 nCells:703766
    zone:1 nCells:8512
    zone:2 nCells:11823
Marking patch-cells on zone 0
Marking patch-cells on zone 1
Marking patch-cells on zone 2

After patch analysis : nCells : 724101
    other  : 646608
    patch  : 70582
    overset: 6911

Creating mesh-to-mesh addressing for region0 and region0 regions using cellVolumeWeight
meshToMesh: Using AABBTree method
    Overlap volume: 7.17897e-10
Creating mesh-to-mesh addressing for region0 and region0 regions using cellVolumeWeight
meshToMesh: Using AABBTree method
    Overlap volume: 2.62712e-09
Creating mesh-to-mesh addressing for region0 and region0 regions using cellVolumeWeight
    Overlap volume: 4.46604e-11
cellVolumeWeight : detected 34 mesh regions after overset

Front : fraction:1 size:20895
Overset analysis : nCells : 724101
    calculated   : 700085
    interpolated : 15545
    hole         : 8471

Execution time for mesh.update() = 12.22 s
smoothSolver:  Solving for alpha.water, Initial residual = 0.0242189, Final residual = 1.37615e-09, No Iterations 5
Phase-1 volume fraction = 0.00147282  Min(alpha.water) = -4.99634e-39  Max(alpha.water) = 1
MULES: Correcting alpha.water
MULES: Correcting alpha.water
[...]
Phase-1 volume fraction = 0.0548661  Min(alpha.water) = -0.00137009  Max(alpha.water) = 1
MULES: Correcting alpha.water
MULES: Correcting alpha.water
Phase-1 volume fraction = 0.054875  Min(alpha.water) = -2.31521  Max(alpha.water) = 2.19706
smoothSolver:  Solving for alpha.water, Initial residual = 0.932792, Final residual = 1.05317e-05, No Iterations 10
Phase-1 volume fraction = 0.0548842  Min(alpha.water) = -0.00215135  Max(alpha.water) = 1
MULES: Correcting alpha.water
MULES: Correcting alpha.water
Phase-1 volume fraction = 0.0548908  Min(alpha.water) = -0.542312  Max(alpha.water) = 1.25169
smoothSolver:  Solving for alpha.water, Initial residual = 0.702192, Final residual = 2.28136e-05, No Iterations 10
Phase-1 volume fraction = 0.0549116  Min(alpha.water) = -0.000690947  Max(alpha.water) = 1
MULES: Correcting alpha.water
MULES: Correcting alpha.water
Phase-1 volume fraction = 0.0549176  Min(alpha.water) = -0.385147  Max(alpha.water) = 1.35019
smoothSolver:  Solving for alpha.water, Initial residual = 0.555743, Final residual = 3.80994e-05, No Iterations 10
Phase-1 volume fraction = 0.0549429  Min(alpha.water) = -0.000607929  Max(alpha.water) = 1
MULES: Correcting alpha.water
MULES: Correcting alpha.water
Phase-1 volume fraction = 0.0549496  Min(alpha.water) = -0.837885  Max(alpha.water) = 1.09319
diagonalPBiCGStab:  Solving for p_rgh, Initial residual = 0.0660565, Final residual = 0.000781609, No Iterations 50
diagonalPBiCGStab:  Solving for p_rgh, Initial residual = 0.00115876, Final residual = 9.8904e-05, No Iterations 15
diagonalPBiCGStab:  Solving for p_rgh, Initial residual = 0.000382738, Final residual = 9.83931e-05, No Iterations 10
diagonalPBiCGStab:  Solving for p_rgh, Initial residual = 0.000249787, Final residual = 9.99415e-05, No Iterations 5
time step continuity errors : sum local = 1.09312, global = -0.462396, cumulative = -0.496091
diagonalPBiCGStab:  Solving for p_rgh, Initial residual = 0.00482921, Final residual = 0.000324494, No Iterations 50
diagonalPBiCGStab:  Solving for p_rgh, Initial residual = 0.000707275, Final residual = 9.90629e-05, No Iterations 10
diagonalPBiCGStab:  Solving for p_rgh, Initial residual = 0.000371543, Final residual = 9.7956e-05, No Iterations 3
diagonalPBiCGStab:  Solving for p_rgh, Initial residual = 0.00023641, Final residual = 8.73444e-05, No Iterations 3
time step continuity errors : sum local = 3.70172, global = 1.27692, cumulative = 0.780833
diagonalPBiCGStab:  Solving for p_rgh, Initial residual = 0.00112531, Final residual = 0.000218028, No Iterations 50
diagonalPBiCGStab:  Solving for p_rgh, Initial residual = 0.000381303, Final residual = 9.7505e-05, No Iterations 19
diagonalPBiCGStab:  Solving for p_rgh, Initial residual = 0.000177594, Final residual = 9.83149e-05, No Iterations 4
diagonalPBiCGStab:  Solving for p_rgh, Initial residual = 0.000126156, Final residual = 0.000109119, No Iterations 50
time step continuity errors : sum local = 7.35263, global = 2.1352, cumulative = 2.91603
PIMPLE: iteration 5
smoothSolver:  Solving for alpha.water, Initial residual = 0.944685, Final residual = 0.00935487, No Iterations 10
Phase-1 volume fraction = 0.0540215  Min(alpha.water) = -0.000422439  Max(alpha.water) = 1
MULES: Correcting alpha.water
MULES: Correcting alpha.water
Phase-1 volume fraction = 0.0540291  Min(alpha.water) = -3486.75  Max(alpha.water) = 537.947
smoothSolver:  Solving for alpha.water, Initial residual = 0.999537, Final residual = 0.0236397, No Iterations 10
Phase-1 volume fraction = 0.180521  Min(alpha.water) = -1.26376  Max(alpha.water) = 22.6622
MULES: Correcting alpha.water
MULES: Correcting alpha.water
Phase-1 volume fraction = 0.195174  Min(alpha.water) = -71636.4  Max(alpha.water) = 93305.1
smoothSolver:  Solving for alpha.water, Initial residual = 0.998995, Final residual = 0.0132833, No Iterations 10
Phase-1 volume fraction = 0.994456  Min(alpha.water) = -161.997  Max(alpha.water) = 1058.35
MULES: Correcting alpha.water
MULES: Correcting alpha.water
Phase-1 volume fraction = -31.5995  Min(alpha.water) = -1.15379e+10  Max(alpha.water) = 1.26877e+10
smoothSolver:  Solving for alpha.water, Initial residual = 0.998175, Final residual = 0.0885112, No Iterations 10
Phase-1 volume fraction = 183306  Min(alpha.water) = -1.4561e+07  Max(alpha.water) = 2.46652e+08
MULES: Correcting alpha.water
MULES: Correcting alpha.water
Phase-1 volume fraction = 2.35194e+20  Min(alpha.water) = -3.69828e+30  Max(alpha.water) = 6.59522e+30
smoothSolver:  Solving for alpha.water, Initial residual = 0.982962, Final residual = 0.00475361, No Iterations 10
Phase-1 volume fraction = 3.0261e+24  Min(alpha.water) = -5.58833e+28  Max(alpha.water) = 4.05289e+28
MULES: Correcting alpha.water
MULES: Correcting alpha.water
Phase-1 volume fraction = -3.109e+97  Min(alpha.water) = -8.50587e+105  Max(alpha.water) = 3.54935e+106
diagonalPBiCGStab:  Solving for p_rgh:  solution singularity
diagonalPBiCGStab:  Solving for p_rgh, Initial residual = 3.29135e-43, Final residual = 2.78455e-43, No Iterations 3
diagonalPBiCGStab:  Solving for p_rgh, Initial residual = 2.79354e-43, Final residual = 1.67448e-45, No Iterations 3
diagonalPBiCGStab:  Solving for p_rgh, Initial residual = 1.67346e-45, Final residual = 8.1967e-45, No Iterations 3
time step continuity errors : sum local = 3.37499e+45, global = -3.37499e+45, cumulative = -3.37499e+45
diagonalPBiCGStab:  Solving for p_rgh, Initial residual = 8.19518e-45, Final residual = 7.53261e-41, No Iterations 3
diagonalPBiCGStab:  Solving for p_rgh, Initial residual = 2.72644e-50, Final residual = 1.2278e-41, No Iterations 3
diagonalPBiCGStab:  Solving for p_rgh, Initial residual = 3.53176e-47, Final residual = 3.6292e-47, No Iterations 3
diagonalPBiCGStab:  Solving for p_rgh, Initial residual = 3.61666e-47, Final residual = 1.1206e-47, No Iterations 3
time step continuity errors : sum local = 6.82765e+51, global = 5.83667e+51, cumulative = 5.83667e+51
diagonalPBiCGStab:  Solving for p_rgh, Initial residual = 1.12046e-47, Final residual = 2.16388e-38, No Iterations 3
diagonalPBiCGStab:  Solving for p_rgh, Initial residual = 3.54298e-55, Final residual = 2.59058e-51, No Iterations 3
diagonalPBiCGStab:  Solving for p_rgh, Initial residual = 2.42775e-51, Final residual = 4.71844e-53, No Iterations 3
diagonalPBiCGStab:  Solving for p_rgh, Initial residual = 4.57758e-53, Final residual = 7.29327e-53, No Iterations 1
time step continuity errors : sum local = 1.32215e+69, global = 1.32215e+69, cumulative = 1.32215e+69
ExecutionTime = 10907.9 s  ClockTime = 10913 s

Courant Number mean: 1.86929e+70 max: 4.00974e+75
Interface Courant Number mean: 3.61236e+44 max: 1.27014e+50
Time = 0.00755

PIMPLE: iteration 1
cellVolumeWeight : detected 3 mesh regions

    zone:0 nCells:703766
    zone:1 nCells:8512
    zone:2 nCells:11823
Marking patch-cells on zone 0
Marking patch-cells on zone 1
Marking patch-cells on zone 2

After patch analysis : nCells : 724101
    other  : 646608
    patch  : 70582
    overset: 6911

Creating mesh-to-mesh addressing for region0 and region0 regions using cellVolumeWeight
meshToMesh: Using AABBTree method
    Overlap volume: 7.17685e-10
Creating mesh-to-mesh addressing for region0 and region0 regions using cellVolumeWeight
meshToMesh: Using AABBTree method
    Overlap volume: 2.62712e-09
Creating mesh-to-mesh addressing for region0 and region0 regions using cellVolumeWeight
    Overlap volume: 4.6666e-11
cellVolumeWeight : detected 16 mesh regions after overset

Front : fraction:1 size:19930
Overset analysis : nCells : 724101
    calculated   : 699336
    interpolated : 15616
    hole         : 9149

Execution time for mesh.update() = 12.56 s
[0] [2] #0  [5] #0  Foam::error::printStack(Foam::Ostream&)Foam::error::printStack(Foam::Ostream&)#0  Foam::error::printStack(Foam::Ostream&) at ??:?
[5] #1  Foam::sigFpe::sigHandler(int) at ??:?
[2] #1  Foam::sigFpe::sigHandler(int) at ??:?
[0] #1  Foam::sigFpe::sigHandler(int) at ??:?
[2] #2  ? at ??:?
[5] #2  ? at ??:?
[0] #2  ? in /lib64/libpthread.so.0
[0] #3  Foam::symGaussSeidelSmoother::smooth(Foam::word const&, Foam::Field<double>&, Foam::lduMatrix const&, Foam::Field<double> const&, Foam::FieldField<Foam::Field, double> const&, Foam::UPtrList<Foam::lduInterfaceField const> const&, unsigned char, int) in /lib64/libpthread.so.0
 in /lib64/libpthread.so.0
[2] #3  Foam::symGaussSeidelSmoother::smooth(Foam::word const&, Foam::Field<double>&, Foam::lduMatrix const&, Foam::Field<double> const&, Foam::FieldField<Foam::Field, double> const&, Foam::UPtrList<Foam::lduInterfaceField const> const&, unsigned char, int)[5] #3  Foam::symGaussSeidelSmoother::smooth(Foam::word const&, Foam::Field<double>&, Foam::lduMatrix const&, Foam::Field<double> const&, Foam::FieldField<Foam::Field, double> const&, Foam::UPtrList<Foam::lduInterfaceField const> const&, unsigned char, int) at ??:?
[0] #4  Foam::symGaussSeidelSmoother::smooth(Foam::Field<double>&, Foam::Field<double> const&, unsigned char, int) const at ??:?
[5] #4  Foam::symGaussSeidelSmoother::smooth(Foam::Field<double>&, Foam::Field<double> const&, unsigned char, int) const at ??:?
[2] #4  Foam::symGaussSeidelSmoother::smooth(Foam::Field<double>&, Foam::Field<double> const&, unsigned char, int) const at ??:?
[0] #5  Foam::smoothSolver::solve(Foam::Field<double>&, Foam::Field<double> const&, unsigned char) const at ??:?
[5] #5  Foam::smoothSolver::solve(Foam::Field<double>&, Foam::Field<double> const&, unsigned char) const at ??:?
[2] #5  Foam::smoothSolver::solve(Foam::Field<double>&, Foam::Field<double> const&, unsigned char) const at ??:?
[5] #6  Foam::fvMatrix<double>::solveSegregated(Foam::dictionary const&) at ??:?
[0] #6  Foam::fvMatrix<double>::solveSegregated(Foam::dictionary const&) at ??:?
[2] #6  Foam::fvMatrix<double>::solveSegregated(Foam::dictionary const&) at ??:?
[0] #7  Foam::fvMatrix<double>::solveSegregatedOrCoupled(Foam::dictionary const&) at ??:?
[5] #7  Foam::fvMatrix<double>::solveSegregatedOrCoupled(Foam::dictionary const&) at ??:?
[2] #7  Foam::fvMatrix<double>::solveSegregatedOrCoupled(Foam::dictionary const&) at ??:?
[5] #8  Foam::fvMesh::solve(Foam::fvMatrix<double>&, Foam::dictionary const&) const at ??:?
[0] #8  Foam::fvMesh::solve(Foam::fvMatrix<double>&, Foam::dictionary const&) const at ??:?
[2] #8  Foam::fvMesh::solve(Foam::fvMatrix<double>&, Foam::dictionary const&) const at ??:?
[5] #9  Foam::SolverPerformance<double> Foam::dynamicOversetFvMesh::solve<double>(Foam::fvMatrix<double>&, Foam::dictionary const&) const at ??:?
[2] #9  Foam::SolverPerformance<double> Foam::dynamicOversetFvMesh::solve<double>(Foam::fvMatrix<double>&, Foam::dictionary const&) const at ??:?
[0] #9  Foam::SolverPerformance<double> Foam::dynamicOversetFvMesh::solve<double>(Foam::fvMatrix<double>&, Foam::dictionary const&) const at ??:?
[2] #10  Foam::dynamicOversetFvMesh::solve(Foam::fvMatrix<double>&, Foam::dictionary const&) const at ??:?
[5] #10  Foam::dynamicOversetFvMesh::solve(Foam::fvMatrix<double>&, Foam::dictionary const&) const at ??:?
[0] #10  Foam::dynamicOversetFvMesh::solve(Foam::fvMatrix<double>&, Foam::dictionary const&) const at ??:?
[5] #11   at ??:?
[2] #11   at ??:?
[0] #11  Foam::fvMatrix<double>::solve()Foam::fvMatrix<double>::solve()Foam::fvMatrix<double>::solve() at ??:?
[0] #12   at ??:?
[5] #12   at ??:?
[2] #12  ??? at ??:?
[0] #13  __libc_start_main at ??:?
[2] #13  __libc_start_main at ??:?
[5] #13  __libc_start_main in /lib64/libc.so.6
[0] #14   in /lib64/libc.so.6
[2] #14   in /lib64/libc.so.6
[5] #14  ??? at /home/abuild/rpmbuild/BUILD/glibc-2.31/csu/../sysdeps/x86_64/start.S:122
[kruemmer:02357] *** Process received signal ***
[kruemmer:02357] Signal: Floating point exception (8)
[kruemmer:02357] Signal code:  (-6)
[kruemmer:02357] Failing at address: 0x4f9e00000935
[kruemmer:02357] [ 0] /lib64/libpthread.so.0(+0x168c0)[0x7f96d1a2e8c0]
[kruemmer:02357] [ 1] /lib64/libpthread.so.0(raise+0x10d)[0x7f96d1a2e71b]
[kruemmer:02357] [ 2] /lib64/libpthread.so.0(+0x168c0)[0x7f96d1a2e8c0]
[kruemmer:02357] [ 3] /mnt/opt.net/src/OpenFOAM/OpenFOAM-v2206_15.4/openfoam/platforms/linux64GccDPInt32Opt/lib/libOpenFOAM.so(_ZN4Foam22symGaussSeidelSmoother6smoothERKNS_4wordERNS_5FieldIdEERKNS_9lduMatrixERKS5_RKNS_10FieldFieldIS4_dEERKNS_8UPtrListIKNS_17lduInterfaceFieldEEEhi+0x334)[0x7f96d2ef2fa4]
[kruemmer:02357] [ 4] /mnt/opt.net/src/OpenFOAM/OpenFOAM-v2206_15.4/openfoam/platforms/linux64GccDPInt32Opt/lib/libOpenFOAM.so(_ZNK4Foam22symGaussSeidelSmoother6smoothERNS_5FieldIdEERKS2_hi+0x3b)[0x7f96d2ef326b]
[kruemmer:02357] [ 5] /mnt/opt.net/src/OpenFOAM/OpenFOAM-v2206_15.4/openfoam/platforms/linux64GccDPInt32Opt/lib/libOpenFOAM.so(_ZNK4Foam12smoothSolver5solveERNS_5FieldIdEERKS2_h+0xb08)[0x7f96d2ee5928]
[kruemmer:02357] [ 6] /mnt/opt.net/src/OpenFOAM/OpenFOAM-v2206_15.4/openfoam/platforms/linux64GccDPInt32Opt/lib/libfiniteVolume.so(_ZN4Foam8fvMatrixIdE15solveSegregatedERKNS_10dictionaryE+0x5b6)[0x7f96d7c93a06]
[kruemmer:02357] [ 7] /mnt/opt.net/src/OpenFOAM/OpenFOAM-v2206_15.4/openfoam/platforms/linux64GccDPInt32Opt/lib/libfiniteVolume.so(_ZN4Foam8fvMatrixIdE24solveSegregatedOrCoupledERKNS_10dictionaryE+0x3c8)[0x7f96d74ec1b8]
[kruemmer:02357] [ 8] /mnt/opt.net/src/OpenFOAM/OpenFOAM-v2206_15.4/openfoam/platforms/linux64GccDPInt32Opt/lib/libfiniteVolume.so(_ZNK4Foam6fvMesh5solveERNS_8fvMatrixIdEERKNS_10dictionaryE+0xf)[0x7f96d7492caf]
[kruemmer:02357] [ 9] /mnt/opt.net/src/OpenFOAM/OpenFOAM-v2206_15.4/openfoam/platforms/linux64GccDPInt32Opt/lib/liboverset.so(_ZNK4Foam20dynamicOversetFvMesh5solveIdEENS_17SolverPerformanceIT_EERNS_8fvMatrixIS3_EERKNS_10dictionaryE+0x5de)[0x7f96d3acc5ce]
[kruemmer:02357] [10] /mnt/opt.net/src/OpenFOAM/OpenFOAM-v2206_15.4/openfoam/platforms/linux64GccDPInt32Opt/lib/liboverset.so(_ZNK4Foam20dynamicOversetFvMesh5solveERNS_8fvMatrixIdEERKNS_10dictionaryE+0x9)[0x7f96d3acce49]
[kruemmer:02357] [11] overInterDyMFoam(_ZN4Foam8fvMatrixIdE5solveEv+0xd5)[0x479da5]
[kruemmer:02357] [12] overInterDyMFoam[0x4538a6]
[kruemmer:02357] [13] /lib64/libc.so.6(__libc_start_main+0xef)[0x7f96d165829d]
[kruemmer:02357] [14] overInterDyMFoam[0x461c8a]
[kruemmer:02357] *** End of error message ***
 at /home/abuild/rpmbuild/BUILD/glibc-2.31/csu/../sysdeps/x86_64/start.S:122
[kruemmer:02359] *** Process received signal ***
[kruemmer:02359] Signal: Floating point exception (8)
[kruemmer:02359] Signal code:  (-6)
[kruemmer:02359] Failing at address: 0x4f9e00000937
[kruemmer:02359] [ 0] /lib64/libpthread.so.0(+0x168c0)[0x7f2d277df8c0]
[kruemmer:02359] [ 1] /lib64/libpthread.so.0(raise+0x10d)[0x7f2d277df71b]
[kruemmer:02359] [ 2] /lib64/libpthread.so.0(+0x168c0)[0x7f2d277df8c0]
[kruemmer:02359] [ 3] /mnt/opt.net/src/OpenFOAM/OpenFOAM-v2206_15.4/openfoam/platforms/linux64GccDPInt32Opt/lib/libOpenFOAM.so(_ZN4Foam22symGaussSeidelSmoother6smoothERKNS_4wordERNS_5FieldIdEERKNS_9lduMatrixERKS5_RKNS_10FieldFieldIS4_dEERKNS_8UPtrListIKNS_17lduInterfaceFieldEEEhi+0x334)[0x7f2d28ca3fa4]
[kruemmer:02359] [ 4] /mnt/opt.net/src/OpenFOAM/OpenFOAM-v2206_15.4/openfoam/platforms/linux64GccDPInt32Opt/lib/libOpenFOAM.so(_ZNK4Foam22symGaussSeidelSmoother6smoothERNS_5FieldIdEERKS2_hi+0x3b)[0x7f2d28ca426b]
[kruemmer:02359] [ 5] /mnt/opt.net/src/OpenFOAM/OpenFOAM-v2206_15.4/openfoam/platforms/linux64GccDPInt32Opt/lib/libOpenFOAM.so(_ZNK4Foam12smoothSolver5solveERNS_5FieldIdEERKS2_h+0xb08)[0x7f2d28c96928]
[kruemmer:02359] [ 6] /mnt/opt.net/src/OpenFOAM/OpenFOAM-v2206_15.4/openfoam/platforms/linux64GccDPInt32Opt/lib/libfiniteVolume.so(_ZN4Foam8fvMatrixIdE15solveSegregatedERKNS_10dictionaryE+0x5b6)[0x7f2d2da44a06]
[kruemmer:02359] [ 7] /mnt/opt.net/src/OpenFOAM/OpenFOAM-v2206_15.4/openfoam/platforms/linux64GccDPInt32Opt/lib/libfiniteVolume.so(_ZN4Foam8fvMatrixIdE24solveSegregatedOrCoupledERKNS_10dictionaryE+0x3c8)[0x7f2d2d29d1b8]
[kruemmer:02359] [ 8] /mnt/opt.net/src/OpenFOAM/OpenFOAM-v2206_15.4/openfoam/platforms/linux64GccDPInt32Opt/lib/libfiniteVolume.so(_ZNK4Foam6fvMesh5solveERNS_8fvMatrixIdEERKNS_10dictionaryE+0xf)[0x7f2d2d243caf]
[kruemmer:02359] [ 9] /mnt/opt.net/src/OpenFOAM/OpenFOAM-v2206_15.4/openfoam/platforms/linux64GccDPInt32Opt/lib/liboverset.so(_ZNK4Foam20dynamicOversetFvMesh5solveIdEENS_17SolverPerformanceIT_EERNS_8fvMatrixIS3_EERKNS_10dictionaryE+0x5de)[0x7f2d2987d5ce]
[kruemmer:02359] [10] /mnt/opt.net/src/OpenFOAM/OpenFOAM-v2206_15.4/openfoam/platforms/linux64GccDPInt32Opt/lib/liboverset.so(_ZNK4Foam20dynamicOversetFvMesh5solveERNS_8fvMatrixIdEERKNS_10dictionaryE+0x9)[0x7f2d2987de49]
[kruemmer:02359] [11] overInterDyMFoam(_ZN4Foam8fvMatrixIdE5solveEv+0xd5)[0x479da5]
[kruemmer:02359] [12] overInterDyMFoam[0x4538a6]
[kruemmer:02359] [13] /lib64/libc.so.6(__libc_start_main+0xef)[0x7f2d2740929d]
[kruemmer:02359] [14] overInterDyMFoam[0x461c8a]
[kruemmer:02359] *** End of error message ***
 at /home/abuild/rpmbuild/BUILD/glibc-2.31/csu/../sysdeps/x86_64/start.S:122
[kruemmer:02363] *** Process received signal ***
[kruemmer:02363] Signal: Floating point exception (8)
[kruemmer:02363] Signal code:  (-6)
[kruemmer:02363] Failing at address: 0x4f9e0000093b
[kruemmer:02363] [ 0] /lib64/libpthread.so.0(+0x168c0)[0x7f152feae8c0]
[kruemmer:02363] [ 1] /lib64/libpthread.so.0(raise+0x10d)[0x7f152feae71b]
[kruemmer:02363] [ 2] /lib64/libpthread.so.0(+0x168c0)[0x7f152feae8c0]
[kruemmer:02363] [ 3] /mnt/opt.net/src/OpenFOAM/OpenFOAM-v2206_15.4/openfoam/platforms/linux64GccDPInt32Opt/lib/libOpenFOAM.so(_ZN4Foam22symGaussSeidelSmoother6smoothERKNS_4wordERNS_5FieldIdEERKNS_9lduMatrixERKS5_RKNS_10FieldFieldIS4_dEERKNS_8UPtrListIKNS_17lduInterfaceFieldEEEhi+0x334)[0x7f1531372fa4]
[kruemmer:02363] [ 4] /mnt/opt.net/src/OpenFOAM/OpenFOAM-v2206_15.4/openfoam/platforms/linux64GccDPInt32Opt/lib/libOpenFOAM.so(_ZNK4Foam22symGaussSeidelSmoother6smoothERNS_5FieldIdEERKS2_hi+0x3b)[0x7f153137326b]
[kruemmer:02363] [ 5] /mnt/opt.net/src/OpenFOAM/OpenFOAM-v2206_15.4/openfoam/platforms/linux64GccDPInt32Opt/lib/libOpenFOAM.so(_ZNK4Foam12smoothSolver5solveERNS_5FieldIdEERKS2_h+0xb08)[0x7f1531365928]
[kruemmer:02363] [ 6] /mnt/opt.net/src/OpenFOAM/OpenFOAM-v2206_15.4/openfoam/platforms/linux64GccDPInt32Opt/lib/libfiniteVolume.so(_ZN4Foam8fvMatrixIdE15solveSegregatedERKNS_10dictionaryE+0x5b6)[0x7f1536113a06]
[kruemmer:02363] [ 7] /mnt/opt.net/src/OpenFOAM/OpenFOAM-v2206_15.4/openfoam/platforms/linux64GccDPInt32Opt/lib/libfiniteVolume.so(_ZN4Foam8fvMatrixIdE24solveSegregatedOrCoupledERKNS_10dictionaryE+0x3c8)[0x7f153596c1b8]
[kruemmer:02363] [ 8] /mnt/opt.net/src/OpenFOAM/OpenFOAM-v2206_15.4/openfoam/platforms/linux64GccDPInt32Opt/lib/libfiniteVolume.so(_ZNK4Foam6fvMesh5solveERNS_8fvMatrixIdEERKNS_10dictionaryE+0xf)[0x7f1535912caf]
[kruemmer:02363] [ 9] /mnt/opt.net/src/OpenFOAM/OpenFOAM-v2206_15.4/openfoam/platforms/linux64GccDPInt32Opt/lib/liboverset.so(_ZNK4Foam20dynamicOversetFvMesh5solveIdEENS_17SolverPerformanceIT_EERNS_8fvMatrixIS3_EERKNS_10dictionaryE+0x5de)[0x7f1531f4c5ce]
[kruemmer:02363] [10] /mnt/opt.net/src/OpenFOAM/OpenFOAM-v2206_15.4/openfoam/platforms/linux64GccDPInt32Opt/lib/liboverset.so(_ZNK4Foam20dynamicOversetFvMesh5solveERNS_8fvMatrixIdEERKNS_10dictionaryE+0x9)[0x7f1531f4ce49]
[kruemmer:02363] [11] overInterDyMFoam(_ZN4Foam8fvMatrixIdE5solveEv+0xd5)[0x479da5]
[kruemmer:02363] [12] overInterDyMFoam[0x4538a6]
[kruemmer:02363] [13] /lib64/libc.so.6(__libc_start_main+0xef)[0x7f152fad829d]
[kruemmer:02363] [14] overInterDyMFoam[0x461c8a]
[kruemmer:02363] *** End of error message ***
--------------------------------------------------------------------------
Primary job  terminated normally, but 1 process returned
a non-zero exit code. Per user-direction, the job has been aborted.
--------------------------------------------------------------------------
--------------------------------------------------------------------------
mpirun noticed that process rank 2 with PID 0 on node kruemmer exited on signal 8 (Floating point exception).
--------------------------------------------------------------------------
