/*---------------------------------------------------------------------------*\
| =========                 |                                                 |
| \\      /  F ield         | OpenFOAM: The Open Source CFD Toolbox           |
|  \\    /   O peration     | Version:  2206                                  |
|   \\  /    A nd           | Website:  www.openfoam.com                      |
|    \\/     M anipulation  |                                                 |
\*---------------------------------------------------------------------------*/
Build  : 76d719d1e6-20220624 OPENFOAM=2206 version=v2206
Arch   : "LSB;label=32;scalar=64"
Exec   : decomposePar
Date   : Apr 06 2023
Time   : 12:00:46
Host   : einlauftrompete.ihs.uni-stuttgart.de
PID    : 32296
I/O    : uncollated
Case   : /mnt/scratch/mzeitler/Tutorials/OversetMesh/Test4/backgroundMesh
nProcs : 1
trapFpe: Floating point exception trapping enabled (FOAM_SIGFPE).
fileModificationChecking : Monitoring run-time modified files using timeStampMaster (fileModificationSkew 5, maxFileModificationPolls 20)
allowSystemOperations : Allowing user-supplied system call operations

// * * * * * * * * * * * * * * * * * * * * * * * * * * * * * * * * * * * * * //
Create time

Overriding DebugSwitches according to controlDict
    overset         0;

    dynamicOversetFvMesh 0;

    cellVolumeWeight 0;



Decomposing mesh

Create mesh

Calculating distribution of cells
Decomposition method metis [8] (region region0)

Finished decomposition in 0 s

Calculating original mesh data

Distributing cells to processors

Distributing faces to processors

Distributing points to processors

Constructing processor meshes
Overriding DebugSwitches according to controlDict
    overset         0;

    dynamicOversetFvMesh 0;

    cellVolumeWeight 0;


Processor 0
    Number of cells = 929
    Number of points = 1026
    Number of faces shared with processor 1 = 32
    Number of faces shared with processor 2 = 24
    Number of faces shared with processor 3 = 9
    Number of processor patches = 3
    Number of processor faces = 65
    Number of boundary faces = 1888
Overriding DebugSwitches according to controlDict
    overset         0;

    dynamicOversetFvMesh 0;

    cellVolumeWeight 0;


Processor 1
    Number of cells = 929
    Number of points = 1022
    Number of faces shared with processor 0 = 32
    Number of faces shared with processor 6 = 26
    Number of faces shared with processor 7 = 7
    Number of processor patches = 3
    Number of processor faces = 65
    Number of boundary faces = 1884
Overriding DebugSwitches according to controlDict
    overset         0;

    dynamicOversetFvMesh 0;

    cellVolumeWeight 0;


Processor 2
    Number of cells = 929
    Number of points = 1024
    Number of faces shared with processor 0 = 24
    Number of faces shared with processor 3 = 32
    Number of processor patches = 2
    Number of processor faces = 56
    Number of boundary faces = 1895
Overriding DebugSwitches according to controlDict
    overset         0;

    dynamicOversetFvMesh 0;

    cellVolumeWeight 0;


Processor 3
    Number of cells = 928
    Number of points = 1022
    Number of faces shared with processor 0 = 9
    Number of faces shared with processor 2 = 32
    Number of processor patches = 2
    Number of processor faces = 41
    Number of boundary faces = 1907
Overriding DebugSwitches according to controlDict
    overset         0;

    dynamicOversetFvMesh 0;

    cellVolumeWeight 0;


Processor 4
    Number of cells = 928
    Number of points = 1022
    Number of faces shared with processor 5 = 32
    Number of faces shared with processor 6 = 17
    Number of faces shared with processor 7 = 16
    Number of processor patches = 3
    Number of processor faces = 65
    Number of boundary faces = 1883
Overriding DebugSwitches according to controlDict
    overset         0;

    dynamicOversetFvMesh 0;

    cellVolumeWeight 0;


Processor 5
    Number of cells = 929
    Number of points = 1022
    Number of faces shared with processor 4 = 32
    Number of processor patches = 1
    Number of processor faces = 32
    Number of boundary faces = 1917
Overriding DebugSwitches according to controlDict
    overset         0;

    dynamicOversetFvMesh 0;

    cellVolumeWeight 0;


Processor 6
    Number of cells = 930
    Number of points = 1022
    Number of faces shared with processor 1 = 26
    Number of faces shared with processor 4 = 17
    Number of faces shared with processor 7 = 25
    Number of processor patches = 3
    Number of processor faces = 68
    Number of boundary faces = 1882
Overriding DebugSwitches according to controlDict
    overset         0;

    dynamicOversetFvMesh 0;

    cellVolumeWeight 0;


Processor 7
    Number of cells = 928
    Number of points = 1112
    Number of faces shared with processor 1 = 7
    Number of faces shared with processor 4 = 16
    Number of faces shared with processor 6 = 25
    Number of processor patches = 3
    Number of processor faces = 48
    Number of boundary faces = 1990

Number of processor faces = 220
Max number of cells = 930 (0.134589502019% above average 928.75)
Max number of processor patches = 3 (20% above average 2.5)
Max number of faces between processors = 68 (23.6363636364% above average 55)

Time = 0

Processor 0: field transfer
Overriding DebugSwitches according to controlDict
    overset         0;

    dynamicOversetFvMesh 0;

    cellVolumeWeight 0;

Processor 1: field transfer
Overriding DebugSwitches according to controlDict
    overset         0;

    dynamicOversetFvMesh 0;

    cellVolumeWeight 0;

Processor 2: field transfer
Overriding DebugSwitches according to controlDict
    overset         0;

    dynamicOversetFvMesh 0;

    cellVolumeWeight 0;

Processor 3: field transfer
Overriding DebugSwitches according to controlDict
    overset         0;

    dynamicOversetFvMesh 0;

    cellVolumeWeight 0;

Processor 4: field transfer
Overriding DebugSwitches according to controlDict
    overset         0;

    dynamicOversetFvMesh 0;

    cellVolumeWeight 0;

Processor 5: field transfer
Overriding DebugSwitches according to controlDict
    overset         0;

    dynamicOversetFvMesh 0;

    cellVolumeWeight 0;

Processor 6: field transfer
Overriding DebugSwitches according to controlDict
    overset         0;

    dynamicOversetFvMesh 0;

    cellVolumeWeight 0;

Processor 7: field transfer
Overriding DebugSwitches according to controlDict
    overset         0;

    dynamicOversetFvMesh 0;

    cellVolumeWeight 0;


End

