/*---------------------------------------------------------------------------*\
| =========                 |                                                 |
| \\      /  F ield         | OpenFOAM: The Open Source CFD Toolbox           |
|  \\    /   O peration     | Version:  2206                                  |
|   \\  /    A nd           | Website:  www.openfoam.com                      |
|    \\/     M anipulation  |                                                 |
\*---------------------------------------------------------------------------*/
Build  : 76d719d1e6-20220624 OPENFOAM=2206 version=v2206
Arch   : "LSB;label=32;scalar=64"
Exec   : overInterDyMFoam
Date   : Apr 18 2023
Time   : 20:44:57
Host   : kruemmer.ihs.uni-stuttgart.de
PID    : 15343
I/O    : uncollated
Case   : /mnt/scratch/mzeitler/Tutorials/OversetMesh/Test4/backgroundMesh
nProcs : 1
trapFpe: Floating point exception trapping enabled (FOAM_SIGFPE).
fileModificationChecking : Monitoring run-time modified files using timeStampMaster (fileModificationSkew 5, maxFileModificationPolls 20)
allowSystemOperations : Allowing user-supplied system call operations

// * * * * * * * * * * * * * * * * * * * * * * * * * * * * * * * * * * * * * //
Create time

Overriding DebugSwitches according to controlDict
    overset         0;

    dynamicOversetFvMesh 0;

    cellVolumeWeight 0;

Create mesh for time = 0

Selecting dynamicFvMesh dynamicOversetFvMesh
Selecting motion solver: multiSolidBodyMotionSolver
Applying motion to entire mesh
Selecting solid-body motion function linearMotion
Applying solid body motion linearMotion to 584 points of cellZone oversetZone

PIMPLE: no residual control data found. Calculations will employ 2 corrector loops

Reading field p_rgh

Reading field U

Reading/calculating face flux field phi

Creating cellMask field to block out hole cells

--> FOAM Warning : 
    From bool Foam::oversetPolyPatch::master() const
    in file oversetPolyPatch/oversetPolyPatch.C at line 145
    The master overset patch is not the first patch. Generally the first patch should be an overset patch to guarantee consistent operation.
Creating interpolatedCells field 

Reading transportProperties

Selecting incompressible transport model Newtonian
Selecting incompressible transport model Newtonian
Selecting turbulence model type RAS
Selecting RAS turbulence model kEpsilon
RAS
{
    RASModel        kEpsilon;
    turbulence      on;
    printCoeffs     on;
    Cmu             0.09;
    C1              1.44;
    C2              1.92;
    C3              0;
    sigmak          1;
    sigmaEps        1.3;
}


Reading g

Reading hRef
Calculating field g.h

No MRF models present

No finite volume options present
Reading/calculating face velocity Uf

Courant Number mean: 3.57142857143e-05 max: 0.037142869293

Starting time loop

Courant Number mean: 3.57142857143e-05 max: 0.037142869293
Interface Courant Number mean: 0 max: 0
deltaT = 0.1
Time = 0.1

PIMPLE: iteration 1
cellVolumeWeight : detected 2 mesh regions

    zone:0 nCells:6958
    zone:1 nCells:472
Marking patch-cells on zone 0
Marking patch-cells on zone 1

After patch analysis : nCells : 7430
    other  : 7044
    patch  : 314
    overset: 72

Creating mesh-to-mesh addressing for region0 and region0 regions using cellVolumeWeight
    Overlap volume: 0.499999339831
cellVolumeWeight : detected 4 mesh regions after overset

Front : fraction:1 size:115
Overset analysis : nCells : 7430
    calculated   : 7168
    interpolated : 109
    hole         : 153

Execution time for mesh.update() = 0.12 s
smoothSolver:  Solving for alpha.water, Initial residual = 1, Final residual = 0, No Iterations 1
Phase-1 volume fraction = 3.46889748361e-05  Min(alpha.water) = 0  Max(alpha.water) = 1
MULES: Correcting alpha.water
MULES: Correcting alpha.water
MULES: Correcting alpha.water
Phase-1 volume fraction = 3.46889748361e-05  Min(alpha.water) = 0  Max(alpha.water) = 1
smoothSolver:  Solving for alpha.water, Initial residual = 0.19838057041, Final residual = 0, No Iterations 1
Phase-1 volume fraction = 6.83824463278e-05  Min(alpha.water) = 0  Max(alpha.water) = 1
MULES: Correcting alpha.water
MULES: Correcting alpha.water
MULES: Correcting alpha.water
Phase-1 volume fraction = 6.83824463278e-05  Min(alpha.water) = 0  Max(alpha.water) = 1
DILUPBiCGStab:  Solving for p_rgh, Initial residual = 1, Final residual = 0.00988171719709, No Iterations 5
time step continuity errors : sum local = 0.114523907182, global = -0.000182395723343, cumulative = -0.000182395723343
DILUPBiCGStab:  Solving for p_rgh, Initial residual = 0.315448935422, Final residual = 0.00200626306478, No Iterations 5
time step continuity errors : sum local = 0.0367987664977, global = -4.61967762755e-05, cumulative = -0.000228592499618
DILUPBiCGStab:  Solving for p_rgh, Initial residual = 0.0402611579759, Final residual = 5.85119888065e-13, No Iterations 183
time step continuity errors : sum local = 7.22539141623e-12, global = -1.54897749516e-12, cumulative = -0.000228592501167
PIMPLE: iteration 2
smoothSolver:  Solving for alpha.water, Initial residual = 0.642826118373, Final residual = 7.39094719367e-09, No Iterations 18
Phase-1 volume fraction = 3.57142814604e-05  Min(alpha.water) = 0  Max(alpha.water) = 1
MULES: Correcting alpha.water
MULES: Correcting alpha.water
MULES: Correcting alpha.water
Phase-1 volume fraction = 3.57142814604e-05  Min(alpha.water) = -7.8899455956e-05  Max(alpha.water) = 1
smoothSolver:  Solving for alpha.water, Initial residual = 0.379672494458, Final residual = 6.06164219488e-09, No Iterations 20
Phase-1 volume fraction = 7.14285651994e-05  Min(alpha.water) = 0  Max(alpha.water) = 1
MULES: Correcting alpha.water
MULES: Correcting alpha.water
MULES: Correcting alpha.water
Phase-1 volume fraction = 7.14285651994e-05  Min(alpha.water) = -0.00012844245497  Max(alpha.water) = 1
DILUPBiCGStab:  Solving for p_rgh, Initial residual = 0.149137032641, Final residual = 0.0011729497302, No Iterations 5
time step continuity errors : sum local = 0.00118171515517, global = -2.69397396147e-05, cumulative = -0.000255532240782
DILUPBiCGStab:  Solving for p_rgh, Initial residual = 0.025774534858, Final residual = 0.000208659651839, No Iterations 13
time step continuity errors : sum local = 0.000207546616241, global = -2.69659147493e-05, cumulative = -0.000282498155531
DILUPBiCGStab:  Solving for p_rgh, Initial residual = 0.014608117904, Final residual = 9.10677374624e-13, No Iterations 171
time step continuity errors : sum local = 8.8918781953e-13, global = 6.73756539758e-13, cumulative = -0.000282498154857
smoothSolver:  Solving for epsilon, Initial residual = 0.955864030444, Final residual = 1.94911440547e-07, No Iterations 5
smoothSolver:  Solving for k, Initial residual = 1, Final residual = 7.45001656117e-07, No Iterations 7
ExecutionTime = 0.49 s  ClockTime = 4 s

Courant Number mean: 0.108328662682 max: 12.9007940586
Interface Courant Number mean: 0.00233334106825 max: 12.3893346859
deltaT = 0.0333333333333
Time = 0.133333

PIMPLE: iteration 1
cellVolumeWeight : detected 2 mesh regions

    zone:0 nCells:6958
    zone:1 nCells:472
Marking patch-cells on zone 0
Marking patch-cells on zone 1

After patch analysis : nCells : 7430
    other  : 7044
    patch  : 314
    overset: 72

Creating mesh-to-mesh addressing for region0 and region0 regions using cellVolumeWeight
    Overlap volume: 0.499945754123
cellVolumeWeight : detected 3 mesh regions after overset

Front : fraction:1 size:112
Overset analysis : nCells : 7430
    calculated   : 7171
    interpolated : 109
    hole         : 150

Execution time for mesh.update() = 0.11 s
smoothSolver:  Solving for alpha.water, Initial residual = 0.0910462465665, Final residual = 5.50985919071e-09, No Iterations 6
Phase-1 volume fraction = 8.33333269689e-05  Min(alpha.water) = -9.59521494214e-05  Max(alpha.water) = 1
MULES: Correcting alpha.water
MULES: Correcting alpha.water
MULES: Correcting alpha.water
Phase-1 volume fraction = 8.33333269689e-05  Min(alpha.water) = -9.59099782229e-05  Max(alpha.water) = 1
smoothSolver:  Solving for alpha.water, Initial residual = 0.092712648379, Final residual = 4.08713599981e-09, No Iterations 6
Phase-1 volume fraction = 9.52380897932e-05  Min(alpha.water) = -8.00451878134e-05  Max(alpha.water) = 1
MULES: Correcting alpha.water
MULES: Correcting alpha.water
MULES: Correcting alpha.water
Phase-1 volume fraction = 9.52380897932e-05  Min(alpha.water) = -8.00102897285e-05  Max(alpha.water) = 1
DILUPBiCGStab:  Solving for p_rgh, Initial residual = 0.219830699699, Final residual = 0.00204782827402, No Iterations 5
time step continuity errors : sum local = 0.000828777455165, global = -1.9587793714e-06, cumulative = -0.000284456934229
DILUPBiCGStab:  Solving for p_rgh, Initial residual = 0.0143896687485, Final residual = 0.000139101945975, No Iterations 18
time step continuity errors : sum local = 6.88595260385e-05, global = 5.36162200298e-06, cumulative = -0.000279095312226
DILUPBiCGStab:  Solving for p_rgh, Initial residual = 0.00261981977053, Final residual = 9.0840486561e-13, No Iterations 176
time step continuity errors : sum local = 4.63760034645e-13, global = 2.41020506897e-13, cumulative = -0.000279095311985
PIMPLE: iteration 2
smoothSolver:  Solving for alpha.water, Initial residual = 0.169843273402, Final residual = 1.05709242018e-09, No Iterations 6
Phase-1 volume fraction = 8.33333269698e-05  Min(alpha.water) = -0.00011995483249  Max(alpha.water) = 1
MULES: Correcting alpha.water
MULES: Correcting alpha.water
MULES: Correcting alpha.water
Phase-1 volume fraction = 8.33333269698e-05  Min(alpha.water) = -0.00011995483249  Max(alpha.water) = 1
smoothSolver:  Solving for alpha.water, Initial residual = 0.100838773508, Final residual = 1.01055458239e-09, No Iterations 6
Phase-1 volume fraction = 9.52380884827e-05  Min(alpha.water) = -0.000111883267463  Max(alpha.water) = 1
MULES: Correcting alpha.water
MULES: Correcting alpha.water
MULES: Correcting alpha.water
Phase-1 volume fraction = 9.52380884827e-05  Min(alpha.water) = -0.000111883267463  Max(alpha.water) = 1
DILUPBiCGStab:  Solving for p_rgh, Initial residual = 0.0298543220346, Final residual = 0.000207823784712, No Iterations 3
time step continuity errors : sum local = 9.56354700637e-05, global = -6.89770779701e-07, cumulative = -0.000279785082764
DILUPBiCGStab:  Solving for p_rgh, Initial residual = 0.00320870846089, Final residual = 3.1075306899e-05, No Iterations 10
time step continuity errors : sum local = 1.41628601522e-05, global = -9.46800183788e-07, cumulative = -0.000280731882948
DILUPBiCGStab:  Solving for p_rgh, Initial residual = 0.000554321371479, Final residual = 2.14256471453e-13, No Iterations 161
time step continuity errors : sum local = 9.74759186057e-14, global = -9.59164771181e-15, cumulative = -0.000280731882958
smoothSolver:  Solving for epsilon, Initial residual = 0.462582505939, Final residual = 3.52241810395e-07, No Iterations 4
smoothSolver:  Solving for k, Initial residual = 0.596274502228, Final residual = 2.79271820049e-07, No Iterations 5
ExecutionTime = 0.79 s  ClockTime = 4 s

Courant Number mean: 0.0371702591682 max: 3.12566370362
Interface Courant Number mean: 0.000619086214971 max: 1.2439434289
deltaT = 0.0333333333333
Time = 0.166667

PIMPLE: iteration 1
cellVolumeWeight : detected 2 mesh regions

    zone:0 nCells:6958
    zone:1 nCells:472
Marking patch-cells on zone 0
Marking patch-cells on zone 1

After patch analysis : nCells : 7430
    other  : 7044
    patch  : 314
    overset: 72

Creating mesh-to-mesh addressing for region0 and region0 regions using cellVolumeWeight
    Overlap volume: 0.499915355928
cellVolumeWeight : detected 3 mesh regions after overset

Front : fraction:1 size:111
Overset analysis : nCells : 7430
    calculated   : 7167
    interpolated : 108
    hole         : 155

Execution time for mesh.update() = 0.11 s
smoothSolver:  Solving for alpha.water, Initial residual = 0.100975423092, Final residual = 3.98379328819e-09, No Iterations 5
Phase-1 volume fraction = 0.000107142848908  Min(alpha.water) = -0.00010252913134  Max(alpha.water) = 1
MULES: Correcting alpha.water
MULES: Correcting alpha.water
MULES: Correcting alpha.water
Phase-1 volume fraction = 0.000107142848908  Min(alpha.water) = -0.00010252913134  Max(alpha.water) = 1
smoothSolver:  Solving for alpha.water, Initial residual = 0.0998860044885, Final residual = 4.00644244145e-09, No Iterations 5
Phase-1 volume fraction = 0.000119047608884  Min(alpha.water) = -9.42077437593e-05  Max(alpha.water) = 1
MULES: Correcting alpha.water
MULES: Correcting alpha.water
MULES: Correcting alpha.water
Phase-1 volume fraction = 0.000119047608884  Min(alpha.water) = -9.40855687418e-05  Max(alpha.water) = 1
DILUPBiCGStab:  Solving for p_rgh, Initial residual = 0.131030363195, Final residual = 0.00113050306689, No Iterations 4
time step continuity errors : sum local = 0.00064565565273, global = -6.64571112845e-06, cumulative = -0.000287377594086
DILUPBiCGStab:  Solving for p_rgh, Initial residual = 0.00960421671014, Final residual = 9.41838489081e-05, No Iterations 14
time step continuity errors : sum local = 6.06626150953e-05, global = -5.60671222333e-06, cumulative = -0.00029298430631
DILUPBiCGStab:  Solving for p_rgh, Initial residual = 0.0012126748676, Final residual = 7.07505115447e-13, No Iterations 184
time step continuity errors : sum local = 4.52737582631e-13, global = 8.10557479548e-15, cumulative = -0.000292984306302
PIMPLE: iteration 2
smoothSolver:  Solving for alpha.water, Initial residual = 0.14699798159, Final residual = 1.10250357055e-09, No Iterations 6
Phase-1 volume fraction = 0.000107142850735  Min(alpha.water) = -0.000108194269595  Max(alpha.water) = 1
MULES: Correcting alpha.water
MULES: Correcting alpha.water
MULES: Correcting alpha.water
Phase-1 volume fraction = 0.000107142850735  Min(alpha.water) = -0.000107189533306  Max(alpha.water) = 1
smoothSolver:  Solving for alpha.water, Initial residual = 0.100734033937, Final residual = 4.39319781917e-10, No Iterations 6
Phase-1 volume fraction = 0.000119047612607  Min(alpha.water) = -0.000103423600139  Max(alpha.water) = 1
MULES: Correcting alpha.water
MULES: Correcting alpha.water
MULES: Correcting alpha.water
Phase-1 volume fraction = 0.000119047612607  Min(alpha.water) = -0.000102439308533  Max(alpha.water) = 1
DILUPBiCGStab:  Solving for p_rgh, Initial residual = 0.0171895394629, Final residual = 0.000116108054042, No Iterations 4
time step continuity errors : sum local = 8.19887623233e-05, global = -1.31361189932e-07, cumulative = -0.000293115667491
DILUPBiCGStab:  Solving for p_rgh, Initial residual = 0.00148689483259, Final residual = 1.33418632964e-05, No Iterations 10
time step continuity errors : sum local = 9.43924227597e-06, global = 2.14161113604e-08, cumulative = -0.00029309425138
DILUPBiCGStab:  Solving for p_rgh, Initial residual = 0.000284022327592, Final residual = 9.96897468022e-13, No Iterations 163
time step continuity errors : sum local = 7.02243220021e-13, global = -6.96563717247e-13, cumulative = -0.000293094252077
smoothSolver:  Solving for epsilon, Initial residual = 0.360339013758, Final residual = 8.07861404732e-07, No Iterations 4
smoothSolver:  Solving for k, Initial residual = 0.475729066892, Final residual = 3.20251162126e-07, No Iterations 5
ExecutionTime = 1.08 s  ClockTime = 4 s

Courant Number mean: 0.0376006812085 max: 2.90843939636
Interface Courant Number mean: 0.000584401559127 max: 1.12874775412
deltaT = 0.0333333333333
Time = 0.2

PIMPLE: iteration 1
cellVolumeWeight : detected 2 mesh regions

    zone:0 nCells:6958
    zone:1 nCells:472
Marking patch-cells on zone 0
Marking patch-cells on zone 1

After patch analysis : nCells : 7430
    other  : 7044
    patch  : 314
    overset: 72

Creating mesh-to-mesh addressing for region0 and region0 regions using cellVolumeWeight
    Overlap volume: 0.499915357597
cellVolumeWeight : detected 3 mesh regions after overset

Front : fraction:1 size:113
Overset analysis : nCells : 7430
    calculated   : 7167
    interpolated : 108
    hole         : 155

Execution time for mesh.update() = 0.12 s
smoothSolver:  Solving for alpha.water, Initial residual = 0.0969292449911, Final residual = 7.08374514473e-10, No Iterations 6
Phase-1 volume fraction = 0.000130952374791  Min(alpha.water) = -9.91435097716e-05  Max(alpha.water) = 1
MULES: Correcting alpha.water
MULES: Correcting alpha.water
MULES: Correcting alpha.water
Phase-1 volume fraction = 0.000130952374791  Min(alpha.water) = -9.91435097716e-05  Max(alpha.water) = 1
smoothSolver:  Solving for alpha.water, Initial residual = 0.0970853762562, Final residual = 7.14460510599e-10, No Iterations 6
Phase-1 volume fraction = 0.000142857137015  Min(alpha.water) = -9.57191641245e-05  Max(alpha.water) = 1
MULES: Correcting alpha.water
MULES: Correcting alpha.water
MULES: Correcting alpha.water
Phase-1 volume fraction = 0.000142857137015  Min(alpha.water) = -9.57191641245e-05  Max(alpha.water) = 1
DILUPBiCGStab:  Solving for p_rgh, Initial residual = 0.100722522444, Final residual = 0.000951576516302, No Iterations 5
time step continuity errors : sum local = 0.00072346391865, global = 9.71875734782e-06, cumulative = -0.000283375494729
DILUPBiCGStab:  Solving for p_rgh, Initial residual = 0.00759924872701, Final residual = 7.32054508837e-05, No Iterations 15
time step continuity errors : sum local = 6.01783682923e-05, global = 8.41255632612e-06, cumulative = -0.000274962938403
DILUPBiCGStab:  Solving for p_rgh, Initial residual = 0.000925755970108, Final residual = 9.81346553689e-13, No Iterations 184
time step continuity errors : sum local = 8.20378301087e-13, global = 3.70004864389e-13, cumulative = -0.000274962938033
PIMPLE: iteration 2
smoothSolver:  Solving for alpha.water, Initial residual = 0.134801599654, Final residual = 4.76030588064e-09, No Iterations 6
Phase-1 volume fraction = 0.000130952377024  Min(alpha.water) = -9.71056610831e-05  Max(alpha.water) = 1
MULES: Correcting alpha.water
MULES: Correcting alpha.water
MULES: Correcting alpha.water
Phase-1 volume fraction = 0.000130952377024  Min(alpha.water) = -9.71056610831e-05  Max(alpha.water) = 1
smoothSolver:  Solving for alpha.water, Initial residual = 0.0921192642994, Final residual = 3.07266438946e-09, No Iterations 6
Phase-1 volume fraction = 0.000142857140234  Min(alpha.water) = -9.19562234669e-05  Max(alpha.water) = 1
MULES: Correcting alpha.water
MULES: Correcting alpha.water
MULES: Correcting alpha.water
Phase-1 volume fraction = 0.000142857140234  Min(alpha.water) = -9.19562234669e-05  Max(alpha.water) = 1
DILUPBiCGStab:  Solving for p_rgh, Initial residual = 0.0120665441773, Final residual = 0.000101862312339, No Iterations 3
time step continuity errors : sum local = 8.2349923762e-05, global = -1.29930167197e-07, cumulative = -0.0002750928682
DILUPBiCGStab:  Solving for p_rgh, Initial residual = 0.00100114391606, Final residual = 9.69638207586e-06, No Iterations 13
time step continuity errors : sum local = 7.8278891165e-06, global = -1.97032380387e-07, cumulative = -0.00027528990058
DILUPBiCGStab:  Solving for p_rgh, Initial residual = 0.000156277158965, Final residual = 5.42463057589e-13, No Iterations 143
time step continuity errors : sum local = 4.21591875455e-13, global = 1.1907663683e-13, cumulative = -0.000275289900461
smoothSolver:  Solving for epsilon, Initial residual = 0.278832567122, Final residual = 9.55052601721e-07, No Iterations 4
smoothSolver:  Solving for k, Initial residual = 0.386548064096, Final residual = 2.61377350468e-07, No Iterations 5
ExecutionTime = 1.46 s  ClockTime = 5 s

Courant Number mean: 0.0384786323596 max: 2.60210233749
Interface Courant Number mean: 0.000543477958856 max: 1.03138892697
deltaT = 0.0333333333333
Time = 0.233333

PIMPLE: iteration 1
cellVolumeWeight : detected 2 mesh regions

    zone:0 nCells:6958
    zone:1 nCells:472
Marking patch-cells on zone 0
Marking patch-cells on zone 1

After patch analysis : nCells : 7430
    other  : 7044
    patch  : 314
    overset: 72

Creating mesh-to-mesh addressing for region0 and region0 regions using cellVolumeWeight
    Overlap volume: 0.499769600387
cellVolumeWeight : detected 3 mesh regions after overset

Front : fraction:1 size:113
Overset analysis : nCells : 7430
    calculated   : 7169
    interpolated : 108
    hole         : 153

Execution time for mesh.update() = 0.11 s
smoothSolver:  Solving for alpha.water, Initial residual = 0.0922630474975, Final residual = 2.24476562274e-09, No Iterations 6
Phase-1 volume fraction = 0.000154761903235  Min(alpha.water) = -8.59974759898e-05  Max(alpha.water) = 1
MULES: Correcting alpha.water
MULES: Correcting alpha.water
MULES: Correcting alpha.water
Phase-1 volume fraction = 0.000154761903235  Min(alpha.water) = -8.59974759898e-05  Max(alpha.water) = 1
smoothSolver:  Solving for alpha.water, Initial residual = 0.0925163449885, Final residual = 2.22807516567e-09, No Iterations 6
Phase-1 volume fraction = 0.00016666666631  Min(alpha.water) = -8.02277104746e-05  Max(alpha.water) = 1
MULES: Correcting alpha.water
MULES: Correcting alpha.water
MULES: Correcting alpha.water
Phase-1 volume fraction = 0.00016666666631  Min(alpha.water) = -8.02277104746e-05  Max(alpha.water) = 1
DILUPBiCGStab:  Solving for p_rgh, Initial residual = 0.0853714307319, Final residual = 0.000704257584961, No Iterations 5
time step continuity errors : sum local = 0.00058420445761, global = -2.15223336529e-06, cumulative = -0.000277442133827
DILUPBiCGStab:  Solving for p_rgh, Initial residual = 0.00693499650604, Final residual = 5.88690780627e-05, No Iterations 14
time step continuity errors : sum local = 5.23772351597e-05, global = -1.24622537596e-06, cumulative = -0.000278688359202
DILUPBiCGStab:  Solving for p_rgh, Initial residual = 0.000782324228702, Final residual = 5.20321834046e-13, No Iterations 171
time step continuity errors : sum local = 4.61534611272e-13, global = 2.16799695491e-13, cumulative = -0.000278688358986
PIMPLE: iteration 2
smoothSolver:  Solving for alpha.water, Initial residual = 0.125157247081, Final residual = 3.22884359348e-09, No Iterations 6
Phase-1 volume fraction = 0.000154761903328  Min(alpha.water) = -8.49193952518e-05  Max(alpha.water) = 1
MULES: Correcting alpha.water
MULES: Correcting alpha.water
MULES: Correcting alpha.water
Phase-1 volume fraction = 0.000154761903328  Min(alpha.water) = -8.47487641743e-05  Max(alpha.water) = 1
smoothSolver:  Solving for alpha.water, Initial residual = 0.0887124282276, Final residual = 2.70214331815e-09, No Iterations 6
Phase-1 volume fraction = 0.000166666665811  Min(alpha.water) = -7.82373665897e-05  Max(alpha.water) = 1
MULES: Correcting alpha.water
MULES: Correcting alpha.water
MULES: Correcting alpha.water
Phase-1 volume fraction = 0.000166666665811  Min(alpha.water) = -7.80999304723e-05  Max(alpha.water) = 1
DILUPBiCGStab:  Solving for p_rgh, Initial residual = 0.00830001479615, Final residual = 7.79305673771e-05, No Iterations 3
time step continuity errors : sum local = 7.17626370556e-05, global = -1.88547227676e-07, cumulative = -0.000278876906213
DILUPBiCGStab:  Solving for p_rgh, Initial residual = 0.000589215500693, Final residual = 3.19631782029e-06, No Iterations 14
time step continuity errors : sum local = 2.91642844141e-06, global = -9.24934334642e-08, cumulative = -0.000278969399647
DILUPBiCGStab:  Solving for p_rgh, Initial residual = 0.000108182865529, Final residual = 6.78214324013e-13, No Iterations 151
time step continuity errors : sum local = 6.18400018771e-13, global = -4.09961474497e-13, cumulative = -0.000278969400057
smoothSolver:  Solving for epsilon, Initial residual = 0.218089536941, Final residual = 7.62239936275e-07, No Iterations 4
smoothSolver:  Solving for k, Initial residual = 0.319459355917, Final residual = 1.8129327914e-07, No Iterations 5
ExecutionTime = 1.76 s  ClockTime = 5 s

Courant Number mean: 0.0399844566686 max: 2.28395939415
Interface Courant Number mean: 0.000527027250419 max: 0.92722820926
deltaT = 0.0333333333333
Time = 0.266667

PIMPLE: iteration 1
cellVolumeWeight : detected 2 mesh regions

    zone:0 nCells:6958
    zone:1 nCells:472
Marking patch-cells on zone 0
Marking patch-cells on zone 1

After patch analysis : nCells : 7430
    other  : 7044
    patch  : 314
    overset: 72

Creating mesh-to-mesh addressing for region0 and region0 regions using cellVolumeWeight
    Overlap volume: 0.499891741952
cellVolumeWeight : detected 3 mesh regions after overset

Front : fraction:1 size:112
Overset analysis : nCells : 7430
    calculated   : 7166
    interpolated : 108
    hole         : 156

Execution time for mesh.update() = 0.11 s
smoothSolver:  Solving for alpha.water, Initial residual = 0.090932244373, Final residual = 2.40545276335e-09, No Iterations 6
Phase-1 volume fraction = 0.00017857142755  Min(alpha.water) = -7.19405632637e-05  Max(alpha.water) = 1
MULES: Correcting alpha.water
MULES: Correcting alpha.water
MULES: Correcting alpha.water
Phase-1 volume fraction = 0.00017857142755  Min(alpha.water) = -7.19405632637e-05  Max(alpha.water) = 1
smoothSolver:  Solving for alpha.water, Initial residual = 0.0909920041517, Final residual = 2.36102984696e-09, No Iterations 6
Phase-1 volume fraction = 0.000190476189214  Min(alpha.water) = -6.6220943211e-05  Max(alpha.water) = 1
MULES: Correcting alpha.water
MULES: Correcting alpha.water
MULES: Correcting alpha.water
Phase-1 volume fraction = 0.000190476189214  Min(alpha.water) = -6.6220943211e-05  Max(alpha.water) = 1
DILUPBiCGStab:  Solving for p_rgh, Initial residual = 0.0734669571889, Final residual = 0.000607748071847, No Iterations 5
time step continuity errors : sum local = 0.000567428494816, global = -1.31556283156e-05, cumulative = -0.000292125028372
DILUPBiCGStab:  Solving for p_rgh, Initial residual = 0.00650061332582, Final residual = 5.2861057954e-05, No Iterations 15
time step continuity errors : sum local = 5.2604803648e-05, global = -7.81840199794e-06, cumulative = -0.00029994343037
DILUPBiCGStab:  Solving for p_rgh, Initial residual = 0.000687494067549, Final residual = 6.01747588015e-14, No Iterations 169
time step continuity errors : sum local = 5.63196317222e-14, global = -8.45800731378e-15, cumulative = -0.000299943430379
PIMPLE: iteration 2
smoothSolver:  Solving for alpha.water, Initial residual = 0.119060137975, Final residual = 3.71219274723e-09, No Iterations 6
Phase-1 volume fraction = 0.000178571425351  Min(alpha.water) = -7.11592722595e-05  Max(alpha.water) = 1
MULES: Correcting alpha.water
MULES: Correcting alpha.water
MULES: Correcting alpha.water
Phase-1 volume fraction = 0.000178571425351  Min(alpha.water) = -7.08073703862e-05  Max(alpha.water) = 1
smoothSolver:  Solving for alpha.water, Initial residual = 0.0871874250321, Final residual = 3.99465953197e-09, No Iterations 6
Phase-1 volume fraction = 0.000190476184611  Min(alpha.water) = -6.44998268558e-05  Max(alpha.water) = 1
MULES: Correcting alpha.water
MULES: Correcting alpha.water
MULES: Correcting alpha.water
Phase-1 volume fraction = 0.000190476184611  Min(alpha.water) = -6.44998268558e-05  Max(alpha.water) = 1
DILUPBiCGStab:  Solving for p_rgh, Initial residual = 0.00615035812356, Final residual = 6.00153684299e-05, No Iterations 3
time step continuity errors : sum local = 6.17792008395e-05, global = 1.19146526644e-07, cumulative = -0.000299824283852
DILUPBiCGStab:  Solving for p_rgh, Initial residual = 0.000413574662511, Final residual = 3.99853771302e-06, No Iterations 12
time step continuity errors : sum local = 4.07021763065e-06, global = 1.40027415324e-07, cumulative = -0.000299684256437
DILUPBiCGStab:  Solving for p_rgh, Initial residual = 8.3815379604e-05, Final residual = 8.76529574567e-13, No Iterations 154
time step continuity errors : sum local = 9.04720463344e-13, global = -8.99526745546e-13, cumulative = -0.000299684257336
smoothSolver:  Solving for epsilon, Initial residual = 0.172008377912, Final residual = 4.52660770786e-07, No Iterations 4
smoothSolver:  Solving for k, Initial residual = 0.267135159607, Final residual = 2.11875093711e-07, No Iterations 5
ExecutionTime = 2.05 s  ClockTime = 5 s

Courant Number mean: 0.0416052656599 max: 2.11773712711
Interface Courant Number mean: 0.000505627846075 max: 0.81886295656
deltaT = 0.0333333333333
Time = 0.3

PIMPLE: iteration 1
cellVolumeWeight : detected 2 mesh regions

    zone:0 nCells:6958
    zone:1 nCells:472
Marking patch-cells on zone 0
Marking patch-cells on zone 1

After patch analysis : nCells : 7430
    other  : 7044
    patch  : 314
    overset: 72

Creating mesh-to-mesh addressing for region0 and region0 regions using cellVolumeWeight
    Overlap volume: 0.499915361429
cellVolumeWeight : detected 3 mesh regions after overset

Front : fraction:1 size:110
Overset analysis : nCells : 7430
    calculated   : 7162
    interpolated : 108
    hole         : 160

Execution time for mesh.update() = 0.11 s
smoothSolver:  Solving for alpha.water, Initial residual = 0.0881121435041, Final residual = 4.44971023667e-09, No Iterations 6
Phase-1 volume fraction = 0.000202380943008  Min(alpha.water) = -5.92934636281e-05  Max(alpha.water) = 1
MULES: Correcting alpha.water
MULES: Correcting alpha.water
MULES: Correcting alpha.water
Phase-1 volume fraction = 0.000202380943008  Min(alpha.water) = -5.92934636281e-05  Max(alpha.water) = 1
smoothSolver:  Solving for alpha.water, Initial residual = 0.0884968597557, Final residual = 4.45559609509e-09, No Iterations 6
Phase-1 volume fraction = 0.00021428570113  Min(alpha.water) = -5.44982624014e-05  Max(alpha.water) = 1
MULES: Correcting alpha.water
MULES: Correcting alpha.water
MULES: Correcting alpha.water
Phase-1 volume fraction = 0.00021428570113  Min(alpha.water) = -5.44982624014e-05  Max(alpha.water) = 1
DILUPBiCGStab:  Solving for p_rgh, Initial residual = 0.0619819174284, Final residual = 0.000527535575646, No Iterations 5
time step continuity errors : sum local = 0.000549112603221, global = 2.41565906942e-06, cumulative = -0.000297268598267
DILUPBiCGStab:  Solving for p_rgh, Initial residual = 0.00595732783117, Final residual = 5.03326110846e-05, No Iterations 15
time step continuity errors : sum local = 5.52003955245e-05, global = 6.2419058509e-07, cumulative = -0.000296644407682
DILUPBiCGStab:  Solving for p_rgh, Initial residual = 0.00064548863071, Final residual = 6.77834969052e-13, No Iterations 161
time step continuity errors : sum local = 7.37940368951e-13, global = 2.8308209193e-13, cumulative = -0.000296644407399
PIMPLE: iteration 2
smoothSolver:  Solving for alpha.water, Initial residual = 0.111848135368, Final residual = 6.76826257577e-09, No Iterations 6
Phase-1 volume fraction = 0.000202380940248  Min(alpha.water) = -5.93363609731e-05  Max(alpha.water) = 1
MULES: Correcting alpha.water
MULES: Correcting alpha.water
MULES: Correcting alpha.water
Phase-1 volume fraction = 0.000202380940248  Min(alpha.water) = -5.93363609731e-05  Max(alpha.water) = 1
smoothSolver:  Solving for alpha.water, Initial residual = 0.0841360618431, Final residual = 7.52464452675e-09, No Iterations 6
Phase-1 volume fraction = 0.000214285695447  Min(alpha.water) = -5.45780808246e-05  Max(alpha.water) = 1
MULES: Correcting alpha.water
MULES: Correcting alpha.water
MULES: Correcting alpha.water
Phase-1 volume fraction = 0.000214285695447  Min(alpha.water) = -5.45780808246e-05  Max(alpha.water) = 1
DILUPBiCGStab:  Solving for p_rgh, Initial residual = 0.0046564257875, Final residual = 4.22872699035e-05, No Iterations 3
time step continuity errors : sum local = 4.76632521339e-05, global = -2.42628473774e-07, cumulative = -0.000296887035872
DILUPBiCGStab:  Solving for p_rgh, Initial residual = 0.000326499731848, Final residual = 2.7464324712e-06, No Iterations 11
time step continuity errors : sum local = 3.03368840681e-06, global = -2.43333842258e-07, cumulative = -0.000297130369715
DILUPBiCGStab:  Solving for p_rgh, Initial residual = 6.50907624958e-05, Final residual = 8.38614022485e-13, No Iterations 147
time step continuity errors : sum local = 9.31501831862e-13, global = 3.55885094326e-13, cumulative = -0.000297130369359
smoothSolver:  Solving for epsilon, Initial residual = 0.13685394667, Final residual = 5.77815869957e-07, No Iterations 4
smoothSolver:  Solving for k, Initial residual = 0.224819504301, Final residual = 4.6632318876e-07, No Iterations 5
ExecutionTime = 2.45 s  ClockTime = 6 s

Courant Number mean: 0.0435879297075 max: 2.06634236536
Interface Courant Number mean: 0.000479483312534 max: 0.711951904325
deltaT = 0.0333333333333
Time = 0.333333

PIMPLE: iteration 1
cellVolumeWeight : detected 2 mesh regions

    zone:0 nCells:6958
    zone:1 nCells:472
Marking patch-cells on zone 0
Marking patch-cells on zone 1

After patch analysis : nCells : 7430
    other  : 7044
    patch  : 314
    overset: 72

Creating mesh-to-mesh addressing for region0 and region0 regions using cellVolumeWeight
    Overlap volume: 0.499915356851
cellVolumeWeight : detected 3 mesh regions after overset

Front : fraction:1 size:112
Overset analysis : nCells : 7430
    calculated   : 7168
    interpolated : 108
    hole         : 154

Execution time for mesh.update() = 0.11 s
smoothSolver:  Solving for alpha.water, Initial residual = 0.0840710878244, Final residual = 7.83102117446e-09, No Iterations 6
Phase-1 volume fraction = 0.000226190449932  Min(alpha.water) = -5.05982204373e-05  Max(alpha.water) = 1
MULES: Correcting alpha.water
MULES: Correcting alpha.water
MULES: Correcting alpha.water
Phase-1 volume fraction = 0.000226190449932  Min(alpha.water) = -5.05982204373e-05  Max(alpha.water) = 1
smoothSolver:  Solving for alpha.water, Initial residual = 0.0844164598659, Final residual = 7.92053666037e-09, No Iterations 6
Phase-1 volume fraction = 0.000238095203918  Min(alpha.water) = -4.69035635905e-05  Max(alpha.water) = 1
MULES: Correcting alpha.water
MULES: Correcting alpha.water
MULES: Correcting alpha.water
Phase-1 volume fraction = 0.000238095203918  Min(alpha.water) = -4.69035635905e-05  Max(alpha.water) = 1
DILUPBiCGStab:  Solving for p_rgh, Initial residual = 0.0545904377495, Final residual = 0.000475265336621, No Iterations 5
time step continuity errors : sum local = 0.000528035221605, global = 1.66483168568e-05, cumulative = -0.000280482052502
DILUPBiCGStab:  Solving for p_rgh, Initial residual = 0.00551966529775, Final residual = 4.17952870739e-05, No Iterations 15
time step continuity errors : sum local = 4.77252776913e-05, global = 1.49762900583e-05, cumulative = -0.000265505762444
DILUPBiCGStab:  Solving for p_rgh, Initial residual = 0.000592337391437, Final residual = 8.55949077645e-13, No Iterations 169
time step continuity errors : sum local = 1.01019141526e-12, global = 7.4006046789e-14, cumulative = -0.00026550576237
PIMPLE: iteration 2
smoothSolver:  Solving for alpha.water, Initial residual = 0.103696436607, Final residual = 8.70464870049e-09, No Iterations 6
Phase-1 volume fraction = 0.000226190449261  Min(alpha.water) = -5.11762846244e-05  Max(alpha.water) = 1
MULES: Correcting alpha.water
MULES: Correcting alpha.water
MULES: Correcting alpha.water
Phase-1 volume fraction = 0.000226190449261  Min(alpha.water) = -5.11762846244e-05  Max(alpha.water) = 1
smoothSolver:  Solving for alpha.water, Initial residual = 0.0792850884623, Final residual = 9.06270406866e-09, No Iterations 6
Phase-1 volume fraction = 0.000238095202183  Min(alpha.water) = -4.79825269822e-05  Max(alpha.water) = 1
MULES: Correcting alpha.water
MULES: Correcting alpha.water
MULES: Correcting alpha.water
Phase-1 volume fraction = 0.000238095202183  Min(alpha.water) = -4.79825269822e-05  Max(alpha.water) = 1
DILUPBiCGStab:  Solving for p_rgh, Initial residual = 0.00475289257269, Final residual = 4.30641025741e-05, No Iterations 3
time step continuity errors : sum local = 5.08128617116e-05, global = -8.29385204047e-07, cumulative = -0.000266335147574
DILUPBiCGStab:  Solving for p_rgh, Initial residual = 0.000266938239949, Final residual = 2.51887519085e-06, No Iterations 14
time step continuity errors : sum local = 2.86397077082e-06, global = -8.79272616885e-07, cumulative = -0.000267214420191
DILUPBiCGStab:  Solving for p_rgh, Initial residual = 6.01271926286e-05, Final residual = 5.3312443067e-13, No Iterations 164
time step continuity errors : sum local = 6.21812147508e-13, global = 6.21734149925e-13, cumulative = -0.000267214419569
smoothSolver:  Solving for epsilon, Initial residual = 0.111698620905, Final residual = 7.47961433513e-07, No Iterations 4
smoothSolver:  Solving for k, Initial residual = 0.19248700218, Final residual = 8.0615289196e-07, No Iterations 5
ExecutionTime = 2.75 s  ClockTime = 6 s

Courant Number mean: 0.0462007673721 max: 2.0073671389
Interface Courant Number mean: 0.000449290536739 max: 0.659846850676
deltaT = 0.0333333333333
Time = 0.366667

PIMPLE: iteration 1
cellVolumeWeight : detected 2 mesh regions

    zone:0 nCells:6958
    zone:1 nCells:472
Marking patch-cells on zone 0
Marking patch-cells on zone 1

After patch analysis : nCells : 7430
    other  : 7044
    patch  : 314
    overset: 72

Creating mesh-to-mesh addressing for region0 and region0 regions using cellVolumeWeight
    Overlap volume: 0.499999998714
cellVolumeWeight : detected 3 mesh regions after overset

Front : fraction:1 size:110
Overset analysis : nCells : 7430
    calculated   : 7173
    interpolated : 107
    hole         : 150

Execution time for mesh.update() = 0.11 s
smoothSolver:  Solving for alpha.water, Initial residual = 0.0784923013818, Final residual = 8.39626474265e-09, No Iterations 6
Phase-1 volume fraction = 0.000249999955606  Min(alpha.water) = -4.52128750027e-05  Max(alpha.water) = 1
MULES: Correcting alpha.water
MULES: Correcting alpha.water
MULES: Correcting alpha.water
Phase-1 volume fraction = 0.000249999955606  Min(alpha.water) = -4.52128750027e-05  Max(alpha.water) = 1
smoothSolver:  Solving for alpha.water, Initial residual = 0.0785428176972, Final residual = 8.60336136705e-09, No Iterations 6
Phase-1 volume fraction = 0.000261904708582  Min(alpha.water) = -4.26006190573e-05  Max(alpha.water) = 1
MULES: Correcting alpha.water
MULES: Correcting alpha.water
MULES: Correcting alpha.water
Phase-1 volume fraction = 0.000261904708582  Min(alpha.water) = -4.26006190573e-05  Max(alpha.water) = 1
DILUPBiCGStab:  Solving for p_rgh, Initial residual = 0.0520105179581, Final residual = 0.000417654767407, No Iterations 5
time step continuity errors : sum local = 0.000488935502089, global = -1.73388908916e-05, cumulative = -0.000284553310461
DILUPBiCGStab:  Solving for p_rgh, Initial residual = 0.00529887073603, Final residual = 4.39644428483e-05, No Iterations 16
time step continuity errors : sum local = 5.373257259e-05, global = -1.33887894347e-05, cumulative = -0.000297942099895
DILUPBiCGStab:  Solving for p_rgh, Initial residual = 0.000560795696046, Final residual = 8.38857512016e-13, No Iterations 163
time step continuity errors : sum local = 1.02584143014e-12, global = -3.62423685236e-13, cumulative = -0.000297942100258
PIMPLE: iteration 2
smoothSolver:  Solving for alpha.water, Initial residual = 0.0948125931815, Final residual = 8.66531993193e-09, No Iterations 6
Phase-1 volume fraction = 0.000249999956593  Min(alpha.water) = -4.52658181011e-05  Max(alpha.water) = 1
MULES: Correcting alpha.water
MULES: Correcting alpha.water
MULES: Correcting alpha.water
Phase-1 volume fraction = 0.000249999956593  Min(alpha.water) = -4.52658181011e-05  Max(alpha.water) = 1
smoothSolver:  Solving for alpha.water, Initial residual = 0.0734699344537, Final residual = 8.80153371243e-09, No Iterations 6
Phase-1 volume fraction = 0.000261904709585  Min(alpha.water) = -4.2677215536e-05  Max(alpha.water) = 1
MULES: Correcting alpha.water
MULES: Correcting alpha.water
MULES: Correcting alpha.water
Phase-1 volume fraction = 0.000261904709585  Min(alpha.water) = -4.2677215536e-05  Max(alpha.water) = 1
DILUPBiCGStab:  Solving for p_rgh, Initial residual = 0.00451698005256, Final residual = 3.77914688266e-05, No Iterations 3
time step continuity errors : sum local = 4.75659809301e-05, global = -1.36082517688e-07, cumulative = -0.000298078182775
DILUPBiCGStab:  Solving for p_rgh, Initial residual = 0.000279398351025, Final residual = 1.18736726016e-06, No Iterations 21
time step continuity errors : sum local = 1.47455638146e-06, global = 5.04581298112e-07, cumulative = -0.000297573601477
DILUPBiCGStab:  Solving for p_rgh, Initial residual = 6.17946296445e-05, Final residual = 5.30540182586e-13, No Iterations 148
time step continuity errors : sum local = 6.69005770972e-13, global = -6.63453885706e-13, cumulative = -0.000297573602141
smoothSolver:  Solving for epsilon, Initial residual = 0.0932434819865, Final residual = 8.45719943662e-07, No Iterations 4
smoothSolver:  Solving for k, Initial residual = 0.167096684459, Final residual = 9.34984740148e-07, No Iterations 5
ExecutionTime = 3.04 s  ClockTime = 7 s

Courant Number mean: 0.0485376679114 max: 2.05371415361
Interface Courant Number mean: 0.000419888546468 max: 0.611129146928
deltaT = 0.0333333333333
Time = 0.4

PIMPLE: iteration 1
cellVolumeWeight : detected 2 mesh regions

    zone:0 nCells:6958
    zone:1 nCells:472
Marking patch-cells on zone 0
Marking patch-cells on zone 1

After patch analysis : nCells : 7430
    other  : 7044
    patch  : 314
    overset: 72

Creating mesh-to-mesh addressing for region0 and region0 regions using cellVolumeWeight
    Overlap volume: 0.499999990055
cellVolumeWeight : detected 3 mesh regions after overset

Front : fraction:1 size:113
Overset analysis : nCells : 7430
    calculated   : 7168
    interpolated : 107
    hole         : 155

Execution time for mesh.update() = 0.12 s
smoothSolver:  Solving for alpha.water, Initial residual = 0.072819262391, Final residual = 8.5389377454e-09, No Iterations 6
Phase-1 volume fraction = 0.000273809462753  Min(alpha.water) = -4.03808578667e-05  Max(alpha.water) = 1
MULES: Correcting alpha.water
MULES: Correcting alpha.water
MULES: Correcting alpha.water
Phase-1 volume fraction = 0.000273809462753  Min(alpha.water) = -4.03808578667e-05  Max(alpha.water) = 1
smoothSolver:  Solving for alpha.water, Initial residual = 0.0727812868091, Final residual = 8.72119576915e-09, No Iterations 6
Phase-1 volume fraction = 0.000285714215453  Min(alpha.water) = -3.81949259629e-05  Max(alpha.water) = 1
MULES: Correcting alpha.water
MULES: Correcting alpha.water
MULES: Correcting alpha.water
Phase-1 volume fraction = 0.000285714215453  Min(alpha.water) = -3.81949259629e-05  Max(alpha.water) = 1
DILUPBiCGStab:  Solving for p_rgh, Initial residual = 0.0468948862826, Final residual = 0.000371356441961, No Iterations 5
time step continuity errors : sum local = 0.000464771293189, global = 3.19448802518e-06, cumulative = -0.000294379114116
DILUPBiCGStab:  Solving for p_rgh, Initial residual = 0.0048905889364, Final residual = 4.7747446663e-05, No Iterations 17
time step continuity errors : sum local = 6.15817613723e-05, global = 2.7676965849e-06, cumulative = -0.000291611417531
DILUPBiCGStab:  Solving for p_rgh, Initial residual = 0.00054869428434, Final residual = 5.14732050528e-13, No Iterations 170
time step continuity errors : sum local = 6.65183908363e-13, global = 5.94847748791e-13, cumulative = -0.000291611416936
PIMPLE: iteration 2
smoothSolver:  Solving for alpha.water, Initial residual = 0.0868094818071, Final residual = 8.07296474365e-09, No Iterations 6
Phase-1 volume fraction = 0.000273809463856  Min(alpha.water) = -3.94999211611e-05  Max(alpha.water) = 1
MULES: Correcting alpha.water
MULES: Correcting alpha.water
MULES: Correcting alpha.water
Phase-1 volume fraction = 0.000273809463856  Min(alpha.water) = -3.94999211611e-05  Max(alpha.water) = 1
smoothSolver:  Solving for alpha.water, Initial residual = 0.0682110325418, Final residual = 8.30238701827e-09, No Iterations 6
Phase-1 volume fraction = 0.000285714216732  Min(alpha.water) = -3.65079463002e-05  Max(alpha.water) = 1
MULES: Correcting alpha.water
MULES: Correcting alpha.water
MULES: Correcting alpha.water
Phase-1 volume fraction = 0.000285714216732  Min(alpha.water) = -3.65079463002e-05  Max(alpha.water) = 1
DILUPBiCGStab:  Solving for p_rgh, Initial residual = 0.003870976267, Final residual = 3.04629932494e-05, No Iterations 3
time step continuity errors : sum local = 4.05003549768e-05, global = -4.85888673817e-07, cumulative = -0.00029209730561
DILUPBiCGStab:  Solving for p_rgh, Initial residual = 0.00028703009422, Final residual = 2.45051941883e-06, No Iterations 24
time step continuity errors : sum local = 3.2141668779e-06, global = -2.13402389076e-07, cumulative = -0.000292310707999
DILUPBiCGStab:  Solving for p_rgh, Initial residual = 5.62172929321e-05, Final residual = 7.16119977171e-13, No Iterations 162
time step continuity errors : sum local = 9.17342575761e-13, global = -1.69550001609e-13, cumulative = -0.000292310708168
smoothSolver:  Solving for epsilon, Initial residual = 0.0777513743655, Final residual = 2.76169539661e-07, No Iterations 5
smoothSolver:  Solving for k, Initial residual = 0.145272244316, Final residual = 9.64943335137e-07, No Iterations 5
ExecutionTime = 3.43 s  ClockTime = 7 s

Courant Number mean: 0.0509470401229 max: 2.01555903061
Interface Courant Number mean: 0.000470762156861 max: 0.571615541644
deltaT = 0.0333333333333
Time = 0.433333

PIMPLE: iteration 1
cellVolumeWeight : detected 2 mesh regions

    zone:0 nCells:6958
    zone:1 nCells:472
Marking patch-cells on zone 0
Marking patch-cells on zone 1

After patch analysis : nCells : 7430
    other  : 7044
    patch  : 314
    overset: 72

Creating mesh-to-mesh addressing for region0 and region0 regions using cellVolumeWeight
    Overlap volume: 0.499977444417
cellVolumeWeight : detected 3 mesh regions after overset

Front : fraction:1 size:111
Overset analysis : nCells : 7430
    calculated   : 7168
    interpolated : 107
    hole         : 155

Execution time for mesh.update() = 0.11 s
smoothSolver:  Solving for alpha.water, Initial residual = 0.0675076539776, Final residual = 8.08232063229e-09, No Iterations 6
Phase-1 volume fraction = 0.00029761896971  Min(alpha.water) = -3.37722264295e-05  Max(alpha.water) = 1
MULES: Correcting alpha.water
MULES: Correcting alpha.water
MULES: Correcting alpha.water
Phase-1 volume fraction = 0.00029761896971  Min(alpha.water) = -3.37722264295e-05  Max(alpha.water) = 1
smoothSolver:  Solving for alpha.water, Initial residual = 0.067297257168, Final residual = 8.20830536888e-09, No Iterations 6
Phase-1 volume fraction = 0.000309523722238  Min(alpha.water) = -3.12135508203e-05  Max(alpha.water) = 1
MULES: Correcting alpha.water
MULES: Correcting alpha.water
MULES: Correcting alpha.water
Phase-1 volume fraction = 0.000309523722238  Min(alpha.water) = -3.12135508203e-05  Max(alpha.water) = 1
DILUPBiCGStab:  Solving for p_rgh, Initial residual = 0.0439001667343, Final residual = 0.0003463759989, No Iterations 5
time step continuity errors : sum local = 0.000454574236829, global = 2.20449661291e-06, cumulative = -0.000290106211555
DILUPBiCGStab:  Solving for p_rgh, Initial residual = 0.00451054715389, Final residual = 3.3786228919e-05, No Iterations 17
time step continuity errors : sum local = 4.52330133464e-05, global = 1.54237413285e-06, cumulative = -0.000288563837422
DILUPBiCGStab:  Solving for p_rgh, Initial residual = 0.000537270881791, Final residual = 8.33759673019e-13, No Iterations 160
time step continuity errors : sum local = 1.13770214654e-12, global = -1.10998123908e-12, cumulative = -0.000288563838532
PIMPLE: iteration 2
smoothSolver:  Solving for alpha.water, Initial residual = 0.0802308935014, Final residual = 7.32532024808e-09, No Iterations 6
Phase-1 volume fraction = 0.00029761897085  Min(alpha.water) = -3.28722658368e-05  Max(alpha.water) = 1
MULES: Correcting alpha.water
MULES: Correcting alpha.water
MULES: Correcting alpha.water
Phase-1 volume fraction = 0.00029761897085  Min(alpha.water) = -3.28722658368e-05  Max(alpha.water) = 1
smoothSolver:  Solving for alpha.water, Initial residual = 0.063406392739, Final residual = 7.6664864744e-09, No Iterations 6
Phase-1 volume fraction = 0.000309523723527  Min(alpha.water) = -2.95519345547e-05  Max(alpha.water) = 1
MULES: Correcting alpha.water
MULES: Correcting alpha.water
MULES: Correcting alpha.water
Phase-1 volume fraction = 0.000309523723527  Min(alpha.water) = -2.95519345547e-05  Max(alpha.water) = 1
DILUPBiCGStab:  Solving for p_rgh, Initial residual = 0.00357673344034, Final residual = 3.28052826921e-05, No Iterations 3
time step continuity errors : sum local = 4.57511967602e-05, global = -3.91380834939e-07, cumulative = -0.000288955219367
DILUPBiCGStab:  Solving for p_rgh, Initial residual = 0.000264355186, Final residual = 2.1547054129e-06, No Iterations 14
time step continuity errors : sum local = 2.89790588462e-06, global = -1.94845583897e-07, cumulative = -0.000289150064951
DILUPBiCGStab:  Solving for p_rgh, Initial residual = 5.64533635205e-05, Final residual = 8.5967694449e-13, No Iterations 156
time step continuity errors : sum local = 1.19118058539e-12, global = -8.15695796876e-13, cumulative = -0.000289150065767
smoothSolver:  Solving for epsilon, Initial residual = 0.065456304325, Final residual = 3.46440372824e-07, No Iterations 5
smoothSolver:  Solving for k, Initial residual = 0.126985609603, Final residual = 2.65996796665e-07, No Iterations 6
ExecutionTime = 3.74 s  ClockTime = 8 s

Courant Number mean: 0.0533620943976 max: 1.95928994053
Interface Courant Number mean: 0.000442378181532 max: 0.541138627778
deltaT = 0.0333333333333
Time = 0.466667

PIMPLE: iteration 1
cellVolumeWeight : detected 2 mesh regions

    zone:0 nCells:6958
    zone:1 nCells:472
Marking patch-cells on zone 0
Marking patch-cells on zone 1

After patch analysis : nCells : 7430
    other  : 7044
    patch  : 314
    overset: 72

Creating mesh-to-mesh addressing for region0 and region0 regions using cellVolumeWeight
    Overlap volume: 0.499972341312
cellVolumeWeight : detected 3 mesh regions after overset

Front : fraction:1 size:113
Overset analysis : nCells : 7430
    calculated   : 7167
    interpolated : 108
    hole         : 155

Execution time for mesh.update() = 0.11 s
smoothSolver:  Solving for alpha.water, Initial residual = 0.0628980080252, Final residual = 7.45516764607e-09, No Iterations 6
Phase-1 volume fraction = 0.00032142847633  Min(alpha.water) = -2.65651761564e-05  Max(alpha.water) = 1
MULES: Correcting alpha.water
MULES: Correcting alpha.water
MULES: Correcting alpha.water
Phase-1 volume fraction = 0.00032142847633  Min(alpha.water) = -2.65651761564e-05  Max(alpha.water) = 1
smoothSolver:  Solving for alpha.water, Initial residual = 0.0627545798701, Final residual = 7.54804276832e-09, No Iterations 6
Phase-1 volume fraction = 0.000333333228728  Min(alpha.water) = -2.38557270088e-05  Max(alpha.water) = 1
MULES: Correcting alpha.water
MULES: Correcting alpha.water
MULES: Correcting alpha.water
Phase-1 volume fraction = 0.000333333228728  Min(alpha.water) = -2.38557270088e-05  Max(alpha.water) = 1
DILUPBiCGStab:  Solving for p_rgh, Initial residual = 0.0387742337805, Final residual = 0.000363884002619, No Iterations 5
time step continuity errors : sum local = 0.000463102026125, global = -1.32281876121e-05, cumulative = -0.000302378253379
DILUPBiCGStab:  Solving for p_rgh, Initial residual = 0.00424392927675, Final residual = 3.50163262726e-05, No Iterations 15
time step continuity errors : sum local = 4.59834628454e-05, global = -8.74912879173e-06, cumulative = -0.000311127382171
DILUPBiCGStab:  Solving for p_rgh, Initial residual = 0.000574517495173, Final residual = 6.90266404111e-14, No Iterations 162
time step continuity errors : sum local = 8.52675542578e-14, global = -4.23778766306e-14, cumulative = -0.000311127382213
PIMPLE: iteration 2
smoothSolver:  Solving for alpha.water, Initial residual = 0.0738717610089, Final residual = 6.28452354426e-09, No Iterations 6
Phase-1 volume fraction = 0.000321428477853  Min(alpha.water) = -2.57329275936e-05  Max(alpha.water) = 1
MULES: Correcting alpha.water
MULES: Correcting alpha.water
MULES: Correcting alpha.water
Phase-1 volume fraction = 0.000321428477853  Min(alpha.water) = -2.57329275936e-05  Max(alpha.water) = 1
smoothSolver:  Solving for alpha.water, Initial residual = 0.0590947579826, Final residual = 7.15931267671e-09, No Iterations 6
Phase-1 volume fraction = 0.00033333323009  Min(alpha.water) = -2.23745266623e-05  Max(alpha.water) = 1
MULES: Correcting alpha.water
MULES: Correcting alpha.water
MULES: Correcting alpha.water
Phase-1 volume fraction = 0.00033333323009  Min(alpha.water) = -2.23745266623e-05  Max(alpha.water) = 1
DILUPBiCGStab:  Solving for p_rgh, Initial residual = 0.00335324906411, Final residual = 3.30910575469e-05, No Iterations 4
time step continuity errors : sum local = 4.53855174082e-05, global = 1.56479925094e-07, cumulative = -0.000310970902288
DILUPBiCGStab:  Solving for p_rgh, Initial residual = 0.000290332715271, Final residual = 2.68508665098e-06, No Iterations 15
time step continuity errors : sum local = 3.59652185381e-06, global = 3.7992348748e-07, cumulative = -0.000310590978801
DILUPBiCGStab:  Solving for p_rgh, Initial residual = 5.47867906493e-05, Final residual = 8.30954520455e-13, No Iterations 148
time step continuity errors : sum local = 1.1409507322e-12, global = 1.12249310159e-12, cumulative = -0.000310590977678
smoothSolver:  Solving for epsilon, Initial residual = 0.0564347318948, Final residual = 5.79693067507e-07, No Iterations 5
smoothSolver:  Solving for k, Initial residual = 0.112377185502, Final residual = 3.40744943749e-07, No Iterations 6
ExecutionTime = 4.04 s  ClockTime = 8 s

Courant Number mean: 0.0555333266636 max: 1.97865912689
Interface Courant Number mean: 0.000415749815191 max: 0.51653041156
deltaT = 0.0333333333333
Time = 0.5

PIMPLE: iteration 1
cellVolumeWeight : detected 2 mesh regions

    zone:0 nCells:6958
    zone:1 nCells:472
Marking patch-cells on zone 0
Marking patch-cells on zone 1

After patch analysis : nCells : 7430
    other  : 7044
    patch  : 314
    overset: 72

Creating mesh-to-mesh addressing for region0 and region0 regions using cellVolumeWeight
    Overlap volume: 0.499977442063
cellVolumeWeight : detected 3 mesh regions after overset

Front : fraction:1 size:112
Overset analysis : nCells : 7430
    calculated   : 7166
    interpolated : 108
    hole         : 156

Execution time for mesh.update() = 0.11 s
smoothSolver:  Solving for alpha.water, Initial residual = 0.0584448150436, Final residual = 6.98854953361e-09, No Iterations 6
Phase-1 volume fraction = 0.000345237982551  Min(alpha.water) = -1.94164797725e-05  Max(alpha.water) = 1
MULES: Correcting alpha.water
MULES: Correcting alpha.water
MULES: Correcting alpha.water
Phase-1 volume fraction = 0.000345237982551  Min(alpha.water) = -1.94164797725e-05  Max(alpha.water) = 1
smoothSolver:  Solving for alpha.water, Initial residual = 0.0581861208214, Final residual = 6.82512050695e-09, No Iterations 6
Phase-1 volume fraction = 0.000357142734879  Min(alpha.water) = -1.68329062395e-05  Max(alpha.water) = 1
MULES: Correcting alpha.water
MULES: Correcting alpha.water
MULES: Correcting alpha.water
Phase-1 volume fraction = 0.000357142734879  Min(alpha.water) = -1.68329062395e-05  Max(alpha.water) = 1
DILUPBiCGStab:  Solving for p_rgh, Initial residual = 0.0405009122234, Final residual = 0.000365058601183, No Iterations 6
time step continuity errors : sum local = 0.000456213117455, global = 5.04123894885e-06, cumulative = -0.000305549738729
DILUPBiCGStab:  Solving for p_rgh, Initial residual = 0.00400536747682, Final residual = 3.87306150042e-05, No Iterations 16
time step continuity errors : sum local = 4.91891919724e-05, global = 2.82214446168e-06, cumulative = -0.000302727594268
DILUPBiCGStab:  Solving for p_rgh, Initial residual = 0.000607796918125, Final residual = 9.11670554209e-13, No Iterations 156
time step continuity errors : sum local = 1.18216709279e-12, global = -9.89589144837e-13, cumulative = -0.000302727595257
PIMPLE: iteration 2
smoothSolver:  Solving for alpha.water, Initial residual = 0.0680481959156, Final residual = 7.05238600288e-09, No Iterations 6
Phase-1 volume fraction = 0.000345237983461  Min(alpha.water) = -1.87172178763e-05  Max(alpha.water) = 1
MULES: Correcting alpha.water
MULES: Correcting alpha.water
MULES: Correcting alpha.water
Phase-1 volume fraction = 0.000345237983461  Min(alpha.water) = -1.87172178763e-05  Max(alpha.water) = 1
smoothSolver:  Solving for alpha.water, Initial residual = 0.0553261196339, Final residual = 8.78626476108e-09, No Iterations 6
Phase-1 volume fraction = 0.00035714273246  Min(alpha.water) = -1.56400010927e-05  Max(alpha.water) = 1
MULES: Correcting alpha.water
MULES: Correcting alpha.water
MULES: Correcting alpha.water
Phase-1 volume fraction = 0.00035714273246  Min(alpha.water) = -1.56400010927e-05  Max(alpha.water) = 1
DILUPBiCGStab:  Solving for p_rgh, Initial residual = 0.0033725967791, Final residual = 2.84702593032e-05, No Iterations 4
time step continuity errors : sum local = 3.74781667546e-05, global = -2.91400250974e-07, cumulative = -0.000303018995508
DILUPBiCGStab:  Solving for p_rgh, Initial residual = 0.000270193102183, Final residual = 2.31967779603e-06, No Iterations 17
time step continuity errors : sum local = 2.98635802278e-06, global = 2.00682835549e-07, cumulative = -0.000302818312673
DILUPBiCGStab:  Solving for p_rgh, Initial residual = 5.2455837717e-05, Final residual = 7.46901549106e-13, No Iterations 147
time step continuity errors : sum local = 9.8199533145e-13, global = 9.40606606435e-13, cumulative = -0.000302818311732
smoothSolver:  Solving for epsilon, Initial residual = 0.0503374856813, Final residual = 2.73364924399e-07, No Iterations 6
smoothSolver:  Solving for k, Initial residual = 0.100488805672, Final residual = 5.32157764437e-07, No Iterations 6
ExecutionTime = 4.43 s  ClockTime = 9 s

Courant Number mean: 0.0578902958403 max: 2.1822025856
Interface Courant Number mean: 0.000480880426102 max: 1.07107867053
deltaT = 0.0333333333333
Time = 0.533333

PIMPLE: iteration 1
cellVolumeWeight : detected 2 mesh regions

    zone:0 nCells:6958
    zone:1 nCells:472
Marking patch-cells on zone 0
Marking patch-cells on zone 1

After patch analysis : nCells : 7430
    other  : 7044
    patch  : 314
    overset: 72

Creating mesh-to-mesh addressing for region0 and region0 regions using cellVolumeWeight
    Overlap volume: 0.499977438774
cellVolumeWeight : detected 3 mesh regions after overset

Front : fraction:1 size:112
Overset analysis : nCells : 7430
    calculated   : 7168
    interpolated : 108
    hole         : 154

Execution time for mesh.update() = 0.12 s
smoothSolver:  Solving for alpha.water, Initial residual = 0.0543242535059, Final residual = 8.24942681151e-09, No Iterations 6
Phase-1 volume fraction = 0.000369047482327  Min(alpha.water) = -1.3011867158e-05  Max(alpha.water) = 1
MULES: Correcting alpha.water
MULES: Correcting alpha.water
MULES: Correcting alpha.water
Phase-1 volume fraction = 0.000369047482327  Min(alpha.water) = -1.3011867158e-05  Max(alpha.water) = 1
smoothSolver:  Solving for alpha.water, Initial residual = 0.0540969177899, Final residual = 7.65276344158e-09, No Iterations 6
Phase-1 volume fraction = 0.00038095223288  Min(alpha.water) = -1.08172603166e-05  Max(alpha.water) = 1
MULES: Correcting alpha.water
MULES: Correcting alpha.water
MULES: Correcting alpha.water
Phase-1 volume fraction = 0.00038095223288  Min(alpha.water) = -1.08162032714e-05  Max(alpha.water) = 1
DILUPBiCGStab:  Solving for p_rgh, Initial residual = 0.041254054074, Final residual = 0.000383413794763, No Iterations 6
time step continuity errors : sum local = 0.00047154344654, global = 6.41672923841e-06, cumulative = -0.000296401582494
DILUPBiCGStab:  Solving for p_rgh, Initial residual = 0.00379956786986, Final residual = 2.51276153514e-05, No Iterations 30
time step continuity errors : sum local = 3.08786680391e-05, global = -1.48127704196e-06, cumulative = -0.000297882859536
DILUPBiCGStab:  Solving for p_rgh, Initial residual = 0.000632397747278, Final residual = 2.63584369033e-13, No Iterations 164
time step continuity errors : sum local = 3.34792495503e-13, global = -3.29703179791e-13, cumulative = -0.000297882859865
PIMPLE: iteration 2
smoothSolver:  Solving for alpha.water, Initial residual = 0.0638719922783, Final residual = 1.73781530076e-09, No Iterations 7
Phase-1 volume fraction = 0.000369047491763  Min(alpha.water) = -1.24942397855e-05  Max(alpha.water) = 1
MULES: Correcting alpha.water
MULES: Correcting alpha.water
MULES: Correcting alpha.water
Phase-1 volume fraction = 0.000369047491763  Min(alpha.water) = -1.24942397855e-05  Max(alpha.water) = 1
smoothSolver:  Solving for alpha.water, Initial residual = 0.0523007829136, Final residual = 2.66611457727e-09, No Iterations 7
Phase-1 volume fraction = 0.00038095224951  Min(alpha.water) = -9.97559654284e-06  Max(alpha.water) = 1
MULES: Correcting alpha.water
MULES: Correcting alpha.water
MULES: Correcting alpha.water
Phase-1 volume fraction = 0.00038095224951  Min(alpha.water) = -9.9747305568e-06  Max(alpha.water) = 1
DILUPBiCGStab:  Solving for p_rgh, Initial residual = 0.00367558022095, Final residual = 3.15852801456e-05, No Iterations 4
time step continuity errors : sum local = 4.05196323918e-05, global = 1.59827188765e-07, cumulative = -0.000297723032676
DILUPBiCGStab:  Solving for p_rgh, Initial residual = 0.000286614963141, Final residual = 2.55579621326e-06, No Iterations 16
time step continuity errors : sum local = 3.22683756957e-06, global = 2.86662034109e-07, cumulative = -0.000297436370642
DILUPBiCGStab:  Solving for p_rgh, Initial residual = 6.34398578449e-05, Final residual = 5.3661104824e-13, No Iterations 154
time step continuity errors : sum local = 6.78308878367e-13, global = 1.06995470181e-14, cumulative = -0.000297436370632
smoothSolver:  Solving for epsilon, Initial residual = 0.0463676218567, Final residual = 6.18566639983e-07, No Iterations 6
smoothSolver:  Solving for k, Initial residual = 0.0909030487062, Final residual = 9.85162891013e-07, No Iterations 6
ExecutionTime = 4.74 s  ClockTime = 9 s

Courant Number mean: 0.0606663627316 max: 2.56204915346
Interface Courant Number mean: 0.000473831727434 max: 1.20219272977
deltaT = 0.0333333333333
Time = 0.566667

PIMPLE: iteration 1
cellVolumeWeight : detected 2 mesh regions

    zone:0 nCells:6958
    zone:1 nCells:472
Marking patch-cells on zone 0
Marking patch-cells on zone 1

After patch analysis : nCells : 7430
    other  : 7044
    patch  : 314
    overset: 72

Creating mesh-to-mesh addressing for region0 and region0 regions using cellVolumeWeight
    Overlap volume: 0.49997743665
cellVolumeWeight : detected 3 mesh regions after overset

Front : fraction:1 size:113
Overset analysis : nCells : 7430
    calculated   : 7169
    interpolated : 108
    hole         : 153

Execution time for mesh.update() = 0.12 s
smoothSolver:  Solving for alpha.water, Initial residual = 0.0512535805741, Final residual = 2.3981045769e-09, No Iterations 7
Phase-1 volume fraction = 0.000392857007736  Min(alpha.water) = -8.14737358799e-06  Max(alpha.water) = 1
MULES: Correcting alpha.water
MULES: Correcting alpha.water
MULES: Correcting alpha.water
Phase-1 volume fraction = 0.000392857007736  Min(alpha.water) = -8.14737358799e-06  Max(alpha.water) = 1
smoothSolver:  Solving for alpha.water, Initial residual = 0.0510706751125, Final residual = 2.30262138198e-09, No Iterations 7
Phase-1 volume fraction = 0.000404761766138  Min(alpha.water) = -7.23756992304e-06  Max(alpha.water) = 1
MULES: Correcting alpha.water
MULES: Correcting alpha.water
MULES: Correcting alpha.water
Phase-1 volume fraction = 0.000404761766138  Min(alpha.water) = -7.13793818386e-06  Max(alpha.water) = 1
DILUPBiCGStab:  Solving for p_rgh, Initial residual = 0.0408937568986, Final residual = 0.000403621038648, No Iterations 5
time step continuity errors : sum local = 0.000502975876699, global = 1.64843413654e-06, cumulative = -0.000295787936495
DILUPBiCGStab:  Solving for p_rgh, Initial residual = 0.00362133111261, Final residual = 2.4191360059e-05, No Iterations 23
time step continuity errors : sum local = 3.0474259446e-05, global = 2.79614710798e-06, cumulative = -0.000292991789387
DILUPBiCGStab:  Solving for p_rgh, Initial residual = 0.000629678583429, Final residual = 5.96880481135e-13, No Iterations 171
time step continuity errors : sum local = 7.68524518385e-13, global = 5.58673410303e-13, cumulative = -0.000292991788828
PIMPLE: iteration 2
smoothSolver:  Solving for alpha.water, Initial residual = 0.060068957632, Final residual = 2.14822786831e-09, No Iterations 7
Phase-1 volume fraction = 0.000392857008491  Min(alpha.water) = -8.30544705687e-06  Max(alpha.water) = 1
MULES: Correcting alpha.water
MULES: Correcting alpha.water
MULES: Correcting alpha.water
Phase-1 volume fraction = 0.000392857008491  Min(alpha.water) = -8.30544705687e-06  Max(alpha.water) = 1
smoothSolver:  Solving for alpha.water, Initial residual = 0.0500283247909, Final residual = 4.13725368298e-09, No Iterations 7
Phase-1 volume fraction = 0.000404761763772  Min(alpha.water) = -7.41864744185e-06  Max(alpha.water) = 1
MULES: Correcting alpha.water
MULES: Correcting alpha.water
MULES: Correcting alpha.water
Phase-1 volume fraction = 0.000404761763772  Min(alpha.water) = -7.28855489768e-06  Max(alpha.water) = 1
DILUPBiCGStab:  Solving for p_rgh, Initial residual = 0.00416362174466, Final residual = 3.00495478167e-05, No Iterations 4
time step continuity errors : sum local = 3.88768268182e-05, global = -3.41744594392e-07, cumulative = -0.000293333533423
DILUPBiCGStab:  Solving for p_rgh, Initial residual = 0.000323860082612, Final residual = 3.06455966105e-06, No Iterations 17
time step continuity errors : sum local = 3.85054756465e-06, global = -3.17306543202e-07, cumulative = -0.000293650839966
DILUPBiCGStab:  Solving for p_rgh, Initial residual = 7.43924875429e-05, Final residual = 9.1938355843e-13, No Iterations 142
time step continuity errors : sum local = 1.16847464328e-12, global = -3.05172076554e-13, cumulative = -0.000293650840271
smoothSolver:  Solving for epsilon, Initial residual = 0.0441715679939, Final residual = 2.87744220959e-07, No Iterations 7
smoothSolver:  Solving for k, Initial residual = 0.0828924539414, Final residual = 4.31725385838e-07, No Iterations 7
ExecutionTime = 5.05 s  ClockTime = 9 s

Courant Number mean: 0.0637187115116 max: 2.83323609356
Interface Courant Number mean: 0.000506113333349 max: 1.30407797848
deltaT = 0.0333333333333
Time = 0.6

PIMPLE: iteration 1
cellVolumeWeight : detected 2 mesh regions

    zone:0 nCells:6958
    zone:1 nCells:472
Marking patch-cells on zone 0
Marking patch-cells on zone 1

After patch analysis : nCells : 7430
    other  : 7044
    patch  : 314
    overset: 72

Creating mesh-to-mesh addressing for region0 and region0 regions using cellVolumeWeight
    Overlap volume: 0.49997744199
cellVolumeWeight : detected 3 mesh regions after overset

Front : fraction:1 size:110
Overset analysis : nCells : 7430
    calculated   : 7170
    interpolated : 108
    hole         : 152

Execution time for mesh.update() = 0.11 s
smoothSolver:  Solving for alpha.water, Initial residual = 0.0489568643707, Final residual = 3.74914349413e-09, No Iterations 7
Phase-1 volume fraction = 0.000416666519954  Min(alpha.water) = -6.38272026823e-06  Max(alpha.water) = 1
MULES: Correcting alpha.water
MULES: Correcting alpha.water
MULES: Correcting alpha.water
Phase-1 volume fraction = 0.000416666519954  Min(alpha.water) = -6.33552967041e-06  Max(alpha.water) = 1
smoothSolver:  Solving for alpha.water, Initial residual = 0.0486874763767, Final residual = 3.48595145891e-09, No Iterations 7
Phase-1 volume fraction = 0.000428571276603  Min(alpha.water) = -5.43916699818e-06  Max(alpha.water) = 1
MULES: Correcting alpha.water
MULES: Correcting alpha.water
MULES: Correcting alpha.water
Phase-1 volume fraction = 0.000428571276603  Min(alpha.water) = -5.11003236597e-06  Max(alpha.water) = 1
DILUPBiCGStab:  Solving for p_rgh, Initial residual = 0.0393335981392, Final residual = 0.000350869411245, No Iterations 5
time step continuity errors : sum local = 0.000447734665621, global = -1.57596190654e-05, cumulative = -0.000309410459337
DILUPBiCGStab:  Solving for p_rgh, Initial residual = 0.00360265923026, Final residual = 3.30906998092e-05, No Iterations 22
time step continuity errors : sum local = 4.36579364451e-05, global = -1.40624382572e-05, cumulative = -0.000323472897594
DILUPBiCGStab:  Solving for p_rgh, Initial residual = 0.000601050835152, Final residual = 4.34136083956e-13, No Iterations 159
time step continuity errors : sum local = 5.78949468058e-13, global = 5.20537615628e-13, cumulative = -0.000323472897073
PIMPLE: iteration 2
smoothSolver:  Solving for alpha.water, Initial residual = 0.0571905311721, Final residual = 2.95759004597e-09, No Iterations 7
Phase-1 volume fraction = 0.000416666523766  Min(alpha.water) = -6.47848111924e-06  Max(alpha.water) = 1
MULES: Correcting alpha.water
MULES: Correcting alpha.water
MULES: Correcting alpha.water
Phase-1 volume fraction = 0.000416666523766  Min(alpha.water) = -6.47770102992e-06  Max(alpha.water) = 1
smoothSolver:  Solving for alpha.water, Initial residual = 0.0482673246011, Final residual = 5.4226948312e-09, No Iterations 7
Phase-1 volume fraction = 0.000428571276857  Min(alpha.water) = -5.58226163908e-06  Max(alpha.water) = 1
MULES: Correcting alpha.water
MULES: Correcting alpha.water
MULES: Correcting alpha.water
Phase-1 volume fraction = 0.000428571276857  Min(alpha.water) = -5.33817370299e-06  Max(alpha.water) = 1
DILUPBiCGStab:  Solving for p_rgh, Initial residual = 0.00462514550201, Final residual = 4.28518774444e-05, No Iterations 4
time step continuity errors : sum local = 5.7447144504e-05, global = -4.56144252123e-07, cumulative = -0.000323929041325
DILUPBiCGStab:  Solving for p_rgh, Initial residual = 0.000409265883605, Final residual = 4.0650361312e-06, No Iterations 13
time step continuity errors : sum local = 5.33792771448e-06, global = 3.90643812364e-08, cumulative = -0.000323889976944
DILUPBiCGStab:  Solving for p_rgh, Initial residual = 8.24439971241e-05, Final residual = 7.12630277462e-13, No Iterations 148
time step continuity errors : sum local = 9.4781792742e-13, global = 7.68796930897e-14, cumulative = -0.000323889976867
smoothSolver:  Solving for epsilon, Initial residual = 0.0419622206588, Final residual = 5.12628239422e-07, No Iterations 7
smoothSolver:  Solving for k, Initial residual = 0.0754599962189, Final residual = 6.8654048712e-07, No Iterations 7
ExecutionTime = 5.44 s  ClockTime = 10 s

Courant Number mean: 0.0667363485613 max: 2.97095292388
Interface Courant Number mean: 0.000507485762518 max: 1.37287664016
deltaT = 0.0333333333333
Time = 0.633333

PIMPLE: iteration 1
cellVolumeWeight : detected 2 mesh regions

    zone:0 nCells:6958
    zone:1 nCells:472
Marking patch-cells on zone 0
Marking patch-cells on zone 1

After patch analysis : nCells : 7430
    other  : 7044
    patch  : 314
    overset: 72

Creating mesh-to-mesh addressing for region0 and region0 regions using cellVolumeWeight
    Overlap volume: 0.499979286828
cellVolumeWeight : detected 3 mesh regions after overset

Front : fraction:1 size:111
Overset analysis : nCells : 7430
    calculated   : 7169
    interpolated : 108
    hole         : 153

Execution time for mesh.update() = 0.12 s
smoothSolver:  Solving for alpha.water, Initial residual = 0.0473460142855, Final residual = 4.67471608429e-09, No Iterations 7
Phase-1 volume fraction = 0.000440476031157  Min(alpha.water) = -4.52137497599e-06  Max(alpha.water) = 1
MULES: Correcting alpha.water
MULES: Correcting alpha.water
MULES: Correcting alpha.water
Phase-1 volume fraction = 0.000440476031157  Min(alpha.water) = -4.41403736238e-06  Max(alpha.water) = 1
smoothSolver:  Solving for alpha.water, Initial residual = 0.0471136431545, Final residual = 4.10966082584e-09, No Iterations 7
Phase-1 volume fraction = 0.000452380786302  Min(alpha.water) = -3.68129336966e-06  Max(alpha.water) = 1
MULES: Correcting alpha.water
MULES: Correcting alpha.water
MULES: Correcting alpha.water
Phase-1 volume fraction = 0.000452380786302  Min(alpha.water) = -3.59116884448e-06  Max(alpha.water) = 1
DILUPBiCGStab:  Solving for p_rgh, Initial residual = 0.0369651668141, Final residual = 0.000292503293264, No Iterations 6
time step continuity errors : sum local = 0.000389615574694, global = -2.35998878543e-06, cumulative = -0.000326249965653
DILUPBiCGStab:  Solving for p_rgh, Initial residual = 0.00359453455955, Final residual = 2.9750205675e-05, No Iterations 21
time step continuity errors : sum local = 4.04354760032e-05, global = -3.0157640644e-06, cumulative = -0.000329265729717
DILUPBiCGStab:  Solving for p_rgh, Initial residual = 0.00057202274852, Final residual = 7.49180423893e-13, No Iterations 167
time step continuity errors : sum local = 1.0316516073e-12, global = -1.02236653966e-12, cumulative = -0.000329265730739
PIMPLE: iteration 2
smoothSolver:  Solving for alpha.water, Initial residual = 0.0562318099558, Final residual = 7.11033761436e-09, No Iterations 7
Phase-1 volume fraction = 0.000440476040278  Min(alpha.water) = -6.71092142745e-08  Max(alpha.water) = 1
MULES: Correcting alpha.water
MULES: Correcting alpha.water
MULES: Correcting alpha.water
Phase-1 volume fraction = 0.000440476040278  Min(alpha.water) = -2.14288863686e-06  Max(alpha.water) = 1
smoothSolver:  Solving for alpha.water, Initial residual = 0.0470753389245, Final residual = 5.48232384643e-09, No Iterations 7
Phase-1 volume fraction = 0.000452380792446  Min(alpha.water) = -5.16598284704e-08  Max(alpha.water) = 1
MULES: Correcting alpha.water
MULES: Correcting alpha.water
MULES: Correcting alpha.water
Phase-1 volume fraction = 0.000452380792446  Min(alpha.water) = -2.21921570559e-06  Max(alpha.water) = 1
DILUPBiCGStab:  Solving for p_rgh, Initial residual = 0.0047121310198, Final residual = 4.39735221456e-05, No Iterations 4
time step continuity errors : sum local = 6.1200723956e-05, global = -4.43951896896e-07, cumulative = -0.000329709682636
DILUPBiCGStab:  Solving for p_rgh, Initial residual = 0.000476201479298, Final residual = 4.63660867039e-06, No Iterations 13
time step continuity errors : sum local = 6.2738054726e-06, global = -3.46437853332e-07, cumulative = -0.00033005612049
DILUPBiCGStab:  Solving for p_rgh, Initial residual = 8.68622033175e-05, Final residual = 4.12486465548e-13, No Iterations 143
time step continuity errors : sum local = 5.47706320991e-13, global = 4.64633769394e-14, cumulative = -0.000330056120443
smoothSolver:  Solving for epsilon, Initial residual = 0.0388963564523, Final residual = 6.91852804659e-07, No Iterations 7
smoothSolver:  Solving for k, Initial residual = 0.0679954251565, Final residual = 8.65552541052e-07, No Iterations 7
ExecutionTime = 5.76 s  ClockTime = 10 s

Courant Number mean: 0.069885079857 max: 3.0289874503
Interface Courant Number mean: 0.000511465034291 max: 1.41920027348
deltaT = 0.0333333333333
Time = 0.666667

PIMPLE: iteration 1
cellVolumeWeight : detected 2 mesh regions

    zone:0 nCells:6958
    zone:1 nCells:472
Marking patch-cells on zone 0
Marking patch-cells on zone 1

After patch analysis : nCells : 7430
    other  : 7044
    patch  : 314
    overset: 72

Creating mesh-to-mesh addressing for region0 and region0 regions using cellVolumeWeight
    Overlap volume: 0.499979283572
cellVolumeWeight : detected 3 mesh regions after overset

Front : fraction:1 size:112
Overset analysis : nCells : 7430
    calculated   : 7166
    interpolated : 108
    hole         : 156

Execution time for mesh.update() = 0.11 s
smoothSolver:  Solving for alpha.water, Initial residual = 0.0462287222045, Final residual = 4.40909694086e-09, No Iterations 7
Phase-1 volume fraction = 0.000464285546665  Min(alpha.water) = -3.90260106699e-08  Max(alpha.water) = 1
MULES: Correcting alpha.water
MULES: Correcting alpha.water
MULES: Correcting alpha.water
Phase-1 volume fraction = 0.000464285546665  Min(alpha.water) = -1.7006518005e-06  Max(alpha.water) = 1
smoothSolver:  Solving for alpha.water, Initial residual = 0.0462618841484, Final residual = 5.21800066611e-09, No Iterations 7
Phase-1 volume fraction = 0.000476190302287  Min(alpha.water) = -2.94469828264e-08  Max(alpha.water) = 1
MULES: Correcting alpha.water
MULES: Correcting alpha.water
MULES: Correcting alpha.water
Phase-1 volume fraction = 0.000476190302287  Min(alpha.water) = -3.5091706306e-06  Max(alpha.water) = 1
DILUPBiCGStab:  Solving for p_rgh, Initial residual = 0.0348927521644, Final residual = 0.000333772242809, No Iterations 5
time step continuity errors : sum local = 0.00045900945413, global = 4.19334412603e-06, cumulative = -0.000325862776317
DILUPBiCGStab:  Solving for p_rgh, Initial residual = 0.00375815837961, Final residual = 3.52625988509e-05, No Iterations 12
time step continuity errors : sum local = 4.97855244589e-05, global = 3.17083101743e-06, cumulative = -0.0003226919453
DILUPBiCGStab:  Solving for p_rgh, Initial residual = 0.000589102153009, Final residual = 5.3595755543e-13, No Iterations 162
time step continuity errors : sum local = 7.57657832133e-13, global = 4.95174080645e-13, cumulative = -0.000322691944805
PIMPLE: iteration 2
smoothSolver:  Solving for alpha.water, Initial residual = 0.054792764305, Final residual = 2.34823307804e-09, No Iterations 8
Phase-1 volume fraction = 0.000464285557308  Min(alpha.water) = -3.88171733673e-08  Max(alpha.water) = 1
MULES: Correcting alpha.water
MULES: Correcting alpha.water
MULES: Correcting alpha.water
Phase-1 volume fraction = 0.000464285557308  Min(alpha.water) = -2.00545600561e-06  Max(alpha.water) = 1
smoothSolver:  Solving for alpha.water, Initial residual = 0.0471627433187, Final residual = 8.4784081679e-09, No Iterations 7
Phase-1 volume fraction = 0.000476190312152  Min(alpha.water) = -2.87113938941e-08  Max(alpha.water) = 1
MULES: Correcting alpha.water
MULES: Correcting alpha.water
MULES: Correcting alpha.water
Phase-1 volume fraction = 0.000476190312152  Min(alpha.water) = -1.50150408613e-05  Max(alpha.water) = 1
DILUPBiCGStab:  Solving for p_rgh, Initial residual = 0.00528661293984, Final residual = 3.59136917504e-05, No Iterations 4
time step continuity errors : sum local = 5.12075953808e-05, global = -1.5203029812e-07, cumulative = -0.000322843975103
DILUPBiCGStab:  Solving for p_rgh, Initial residual = 0.000574406597939, Final residual = 2.51793043125e-06, No Iterations 41
time step continuity errors : sum local = 3.45695975272e-06, global = 1.09464560709e-06, cumulative = -0.000321749329496
DILUPBiCGStab:  Solving for p_rgh, Initial residual = 9.69939568991e-05, Final residual = 9.95934492959e-13, No Iterations 152
time step continuity errors : sum local = 1.41211949158e-12, global = 1.36065585636e-12, cumulative = -0.000321749328135
smoothSolver:  Solving for epsilon, Initial residual = 0.0346936461297, Final residual = 7.59583826065e-07, No Iterations 7
smoothSolver:  Solving for k, Initial residual = 0.0611328870897, Final residual = 9.26959212431e-07, No Iterations 7
ExecutionTime = 6.06 s  ClockTime = 11 s

Courant Number mean: 0.0732725746937 max: 3.02440274634
Interface Courant Number mean: 0.000551174890604 max: 1.43776766203
deltaT = 0.0333333333333
Time = 0.7

PIMPLE: iteration 1
cellVolumeWeight : detected 2 mesh regions

    zone:0 nCells:6958
    zone:1 nCells:472
Marking patch-cells on zone 0
Marking patch-cells on zone 1

After patch analysis : nCells : 7430
    other  : 7044
    patch  : 314
    overset: 72

Creating mesh-to-mesh addressing for region0 and region0 regions using cellVolumeWeight
    Overlap volume: 0.499453207334
cellVolumeWeight : detected 3 mesh regions after overset

Front : fraction:1 size:111
[...]
Phase-1 volume fraction = 0.00255179497556  Min(alpha.water) = -4.54660348028e-36  Max(alpha.water) = 1
MULES: Correcting alpha.water
MULES: Correcting alpha.water
MULES: Correcting alpha.water
Phase-1 volume fraction = 0.0025519160688  Min(alpha.water) = -2.25289326895e-12  Max(alpha.water) = 1
DILUPBiCGStab:  Solving for p_rgh, Initial residual = 0.103481554271, Final residual = 0.00100950927074, No Iterations 3
time step continuity errors : sum local = 0.000885628892574, global = -1.29664501458e-05, cumulative = -0.00181687708467
DILUPBiCGStab:  Solving for p_rgh, Initial residual = 0.00343744045443, Final residual = 3.3534684884e-05, No Iterations 15
time step continuity errors : sum local = 2.94626380079e-05, global = -1.35813421168e-05, cumulative = -0.00183045842678
DILUPBiCGStab:  Solving for p_rgh, Initial residual = 0.000949556121787, Final residual = 3.94368539445e-13, No Iterations 175
time step continuity errors : sum local = 3.41624598805e-13, global = -2.42665734739e-14, cumulative = -0.00183045842681
PIMPLE: iteration 2
smoothSolver:  Solving for alpha.water, Initial residual = 0.0642384937073, Final residual = 1.8418549579e-09, No Iterations 7
Phase-1 volume fraction = 0.00254983373899  Min(alpha.water) = -4.54660348028e-36  Max(alpha.water) = 1
MULES: Correcting alpha.water
MULES: Correcting alpha.water
MULES: Correcting alpha.water
Phase-1 volume fraction = 0.00254994388547  Min(alpha.water) = -4.54660348028e-36  Max(alpha.water) = 1
smoothSolver:  Solving for alpha.water, Initial residual = 0.0471188713555, Final residual = 1.32919811994e-09, No Iterations 7
Phase-1 volume fraction = 0.00255253691108  Min(alpha.water) = -4.54660348028e-36  Max(alpha.water) = 1
MULES: Correcting alpha.water
MULES: Correcting alpha.water
MULES: Correcting alpha.water
Phase-1 volume fraction = 0.00255269955192  Min(alpha.water) = -1.34664502511e-07  Max(alpha.water) = 1
DILUPBiCGStab:  Solving for p_rgh, Initial residual = 0.0107169031776, Final residual = 8.67422531683e-05, No Iterations 4
time step continuity errors : sum local = 7.24035807619e-05, global = 2.09469475232e-05, cumulative = -0.00180951147928
DILUPBiCGStab:  Solving for p_rgh, Initial residual = 0.000850803476427, Final residual = 8.34779602774e-06, No Iterations 58
time step continuity errors : sum local = 6.97582762324e-06, global = 6.84630921976e-06, cumulative = -0.00180266517006
DILUPBiCGStab:  Solving for p_rgh, Initial residual = 0.000282177180338, Final residual = 9.61656283063e-13, No Iterations 173
time step continuity errors : sum local = 8.45907225389e-13, global = -3.29124076177e-14, cumulative = -0.0018026651701
smoothSolver:  Solving for epsilon, Initial residual = 0.0439357593395, Final residual = 7.70645282921e-07, No Iterations 8
smoothSolver:  Solving for k, Initial residual = 0.0294301636228, Final residual = 6.63079297945e-07, No Iterations 9
ExecutionTime = 94.86 s  ClockTime = 115 s

Courant Number mean: 0.816390097151 max: 4.96536550058
Interface Courant Number mean: 0.060343346856 max: 1.75634531455
deltaT = 0.00808080808081
Time = 3.97576

PIMPLE: iteration 1
cellVolumeWeight : detected 2 mesh regions

    zone:0 nCells:6958
    zone:1 nCells:472
Marking patch-cells on zone 0
Marking patch-cells on zone 1

After patch analysis : nCells : 7430
    other  : 7044
    patch  : 314
    overset: 72

Creating mesh-to-mesh addressing for region0 and region0 regions using cellVolumeWeight
    Overlap volume: 0.227424242346
cellVolumeWeight : detected 4 mesh regions after overset

Front : fraction:1 size:99
Overset analysis : nCells : 7430
    calculated   : 7035
    interpolated : 54
    hole         : 341

Execution time for mesh.update() = 0.07 s
smoothSolver:  Solving for alpha.water, Initial residual = 0.0473238210136, Final residual = 6.16879243097e-09, No Iterations 7
Phase-1 volume fraction = 0.00255540900685  Min(alpha.water) = -4.54660348028e-36  Max(alpha.water) = 1
MULES: Correcting alpha.water
MULES: Correcting alpha.water
MULES: Correcting alpha.water
Phase-1 volume fraction = 0.00255552674929  Min(alpha.water) = -1.81343776613e-06  Max(alpha.water) = 1
smoothSolver:  Solving for alpha.water, Initial residual = 0.0470845585599, Final residual = 2.26328591028e-09, No Iterations 7
Phase-1 volume fraction = 0.00255787784398  Min(alpha.water) = -4.54660348028e-36  Max(alpha.water) = 1
MULES: Correcting alpha.water
MULES: Correcting alpha.water
MULES: Correcting alpha.water
Phase-1 volume fraction = 0.00255799225762  Min(alpha.water) = -1.14776419104e-07  Max(alpha.water) = 1
DILUPBiCGStab:  Solving for p_rgh, Initial residual = 0.102008360427, Final residual = 0.000979461985586, No Iterations 3
time step continuity errors : sum local = 0.000880653449554, global = -4.10869670446e-05, cumulative = -0.00184375213714
DILUPBiCGStab:  Solving for p_rgh, Initial residual = 0.00326681473556, Final residual = 3.10883731262e-05, No Iterations 22
time step continuity errors : sum local = 2.82534299982e-05, global = -2.59163857917e-05, cumulative = -0.00186966852293
DILUPBiCGStab:  Solving for p_rgh, Initial residual = 0.00088704998721, Final residual = 9.30191995232e-13, No Iterations 198
time step continuity errors : sum local = 8.31108366502e-13, global = 1.43572333355e-13, cumulative = -0.00186966852279
PIMPLE: iteration 2
smoothSolver:  Solving for alpha.water, Initial residual = 0.0629098000498, Final residual = 6.90612854256e-09, No Iterations 7
Phase-1 volume fraction = 0.00255567078197  Min(alpha.water) = -4.54660348028e-36  Max(alpha.water) = 1
MULES: Correcting alpha.water
MULES: Correcting alpha.water
MULES: Correcting alpha.water
Phase-1 volume fraction = 0.00255581104385  Min(alpha.water) = -2.9900439808e-06  Max(alpha.water) = 1
smoothSolver:  Solving for alpha.water, Initial residual = 0.0470248797255, Final residual = 1.39232859714e-09, No Iterations 7
Phase-1 volume fraction = 0.00255847541763  Min(alpha.water) = -4.54660348028e-36  Max(alpha.water) = 1
MULES: Correcting alpha.water
MULES: Correcting alpha.water
MULES: Correcting alpha.water
Phase-1 volume fraction = 0.00255860565263  Min(alpha.water) = -1.19710665899e-07  Max(alpha.water) = 1
DILUPBiCGStab:  Solving for p_rgh, Initial residual = 0.0114292562745, Final residual = 9.42330586836e-05, No Iterations 4
time step continuity errors : sum local = 7.78614261551e-05, global = 3.7877046869e-06, cumulative = -0.0018658808181
DILUPBiCGStab:  Solving for p_rgh, Initial residual = 0.00104327070808, Final residual = 9.65504605931e-06, No Iterations 47
time step continuity errors : sum local = 7.99750763408e-06, global = 7.03808070137e-06, cumulative = -0.0018588427374
DILUPBiCGStab:  Solving for p_rgh, Initial residual = 0.000334238901803, Final residual = 6.79839087346e-13, No Iterations 183
time step continuity errors : sum local = 5.89061081859e-13, global = -6.96758686601e-14, cumulative = -0.00185884273747
smoothSolver:  Solving for epsilon, Initial residual = 0.0478003935805, Final residual = 8.10981145608e-07, No Iterations 8
smoothSolver:  Solving for k, Initial residual = 0.0296843415667, Final residual = 6.95728662953e-07, No Iterations 9
ExecutionTime = 95.15 s  ClockTime = 115 s

Courant Number mean: 0.815454726173 max: 4.86605474647
Interface Courant Number mean: 0.062886825524 max: 1.75229871442
deltaT = 0.00808080808081
Time = 3.98384

PIMPLE: iteration 1
cellVolumeWeight : detected 2 mesh regions

    zone:0 nCells:6958
    zone:1 nCells:472
Marking patch-cells on zone 0
Marking patch-cells on zone 1

After patch analysis : nCells : 7430
    other  : 7044
    patch  : 314
    overset: 72

Creating mesh-to-mesh addressing for region0 and region0 regions using cellVolumeWeight
    Overlap volume: 0.226616161616
cellVolumeWeight : detected 4 mesh regions after overset

Front : fraction:1 size:100
Overset analysis : nCells : 7430
    calculated   : 7033
    interpolated : 54
    hole         : 343

Execution time for mesh.update() = 0.06 s
smoothSolver:  Solving for alpha.water, Initial residual = 0.0472385664904, Final residual = 1.681582608e-09, No Iterations 7
Phase-1 volume fraction = 0.00256060526542  Min(alpha.water) = -4.54660348028e-36  Max(alpha.water) = 1
MULES: Correcting alpha.water
MULES: Correcting alpha.water
MULES: Correcting alpha.water
Phase-1 volume fraction = 0.00256073177004  Min(alpha.water) = -8.57561480623e-11  Max(alpha.water) = 1
smoothSolver:  Solving for alpha.water, Initial residual = 0.046681402361, Final residual = 1.55551959252e-09, No Iterations 7
Phase-1 volume fraction = 0.00256255260586  Min(alpha.water) = -4.54660348028e-36  Max(alpha.water) = 1
MULES: Correcting alpha.water
MULES: Correcting alpha.water
MULES: Correcting alpha.water
Phase-1 volume fraction = 0.00256266399354  Min(alpha.water) = -6.90413337852e-06  Max(alpha.water) = 1
DILUPBiCGStab:  Solving for p_rgh, Initial residual = 0.101027699131, Final residual = 0.000975559270258, No Iterations 3
time step continuity errors : sum local = 0.000863630950081, global = -3.37141004909e-05, cumulative = -0.00189255683796
DILUPBiCGStab:  Solving for p_rgh, Initial residual = 0.00329291050831, Final residual = 3.29007675476e-05, No Iterations 28
time step continuity errors : sum local = 2.94122171447e-05, global = -1.47888807438e-05, cumulative = -0.00190734571871
DILUPBiCGStab:  Solving for p_rgh, Initial residual = 0.000987765093452, Final residual = 9.43996378255e-13, No Iterations 163
time step continuity errors : sum local = 8.21792314633e-13, global = -7.84775462057e-13, cumulative = -0.00190734571949
PIMPLE: iteration 2
smoothSolver:  Solving for alpha.water, Initial residual = 0.0609212368812, Final residual = 7.73375125217e-09, No Iterations 7
Phase-1 volume fraction = 0.00256131979007  Min(alpha.water) = -4.54660348028e-36  Max(alpha.water) = 1
MULES: Correcting alpha.water
MULES: Correcting alpha.water
MULES: Correcting alpha.water
Phase-1 volume fraction = 0.00256145040467  Min(alpha.water) = -1.79157384235e-21  Max(alpha.water) = 1
smoothSolver:  Solving for alpha.water, Initial residual = 0.0465851773414, Final residual = 2.15146806193e-09, No Iterations 7
Phase-1 volume fraction = 0.00256405924787  Min(alpha.water) = -4.54660348028e-36  Max(alpha.water) = 1
MULES: Correcting alpha.water
MULES: Correcting alpha.water
MULES: Correcting alpha.water
Phase-1 volume fraction = 0.00256420811696  Min(alpha.water) = -8.38863858261e-06  Max(alpha.water) = 1
DILUPBiCGStab:  Solving for p_rgh, Initial residual = 0.0115899834472, Final residual = 9.38756421688e-05, No Iterations 4
time step continuity errors : sum local = 7.9142799409e-05, global = 2.98409551467e-05, cumulative = -0.00187750476434
DILUPBiCGStab:  Solving for p_rgh, Initial residual = 0.000943592581326, Final residual = 7.83544645976e-06, No Iterations 54
time step continuity errors : sum local = 6.61463861498e-06, global = 5.87374418251e-06, cumulative = -0.00187163102016
DILUPBiCGStab:  Solving for p_rgh, Initial residual = 0.000333053502335, Final residual = 6.95264517513e-13, No Iterations 162
time step continuity errors : sum local = 6.33360281159e-13, global = -3.71283236038e-15, cumulative = -0.00187163102017
smoothSolver:  Solving for epsilon, Initial residual = 0.050341859279, Final residual = 7.35566071627e-07, No Iterations 8
smoothSolver:  Solving for k, Initial residual = 0.0292608822027, Final residual = 6.89506352008e-07, No Iterations 9
ExecutionTime = 95.41 s  ClockTime = 116 s

Courant Number mean: 0.813756939817 max: 4.78184441145
Interface Courant Number mean: 0.0621028663021 max: 1.82987680483
deltaT = 0.00808080808081
Time = 3.99192

PIMPLE: iteration 1
cellVolumeWeight : detected 2 mesh regions

    zone:0 nCells:6958
    zone:1 nCells:472
Marking patch-cells on zone 0
Marking patch-cells on zone 1

After patch analysis : nCells : 7430
    other  : 7044
    patch  : 314
    overset: 72

Creating mesh-to-mesh addressing for region0 and region0 regions using cellVolumeWeight
    Overlap volume: 0.225807459636
cellVolumeWeight : detected 4 mesh regions after overset

Front : fraction:1 size:100
Overset analysis : nCells : 7430
    calculated   : 7032
    interpolated : 53
    hole         : 345

Execution time for mesh.update() = 0.06 s
smoothSolver:  Solving for alpha.water, Initial residual = 0.0461367694985, Final residual = 1.91376712929e-09, No Iterations 7
Phase-1 volume fraction = 0.00256658604415  Min(alpha.water) = -4.54660348028e-36  Max(alpha.water) = 1
MULES: Correcting alpha.water
MULES: Correcting alpha.water
MULES: Correcting alpha.water
Phase-1 volume fraction = 0.00256666621874  Min(alpha.water) = -2.41949654675e-05  Max(alpha.water) = 1
smoothSolver:  Solving for alpha.water, Initial residual = 0.0448553994327, Final residual = 2.40230381527e-09, No Iterations 7
Phase-1 volume fraction = 0.00256893596974  Min(alpha.water) = -4.54660348028e-36  Max(alpha.water) = 1
MULES: Correcting alpha.water
MULES: Correcting alpha.water
MULES: Correcting alpha.water
Phase-1 volume fraction = 0.00256904537678  Min(alpha.water) = -3.37551468574e-05  Max(alpha.water) = 1
DILUPBiCGStab:  Solving for p_rgh, Initial residual = 0.0998955673353, Final residual = 0.000905824440739, No Iterations 3
time step continuity errors : sum local = 0.000840278434528, global = -3.08724412273e-05, cumulative = -0.00190250346139
DILUPBiCGStab:  Solving for p_rgh, Initial residual = 0.00313102207404, Final residual = 2.82663260226e-05, No Iterations 14
time step continuity errors : sum local = 2.61797780678e-05, global = -1.5801601669e-05, cumulative = -0.00191830506306
DILUPBiCGStab:  Solving for p_rgh, Initial residual = 0.000838698092279, Final residual = 6.52108497324e-13, No Iterations 181
time step continuity errors : sum local = 6.01295447278e-13, global = -2.70990505956e-13, cumulative = -0.00191830506333
PIMPLE: iteration 2
smoothSolver:  Solving for alpha.water, Initial residual = 0.0617214277325, Final residual = 3.43797153048e-09, No Iterations 8
Phase-1 volume fraction = 0.00256710383129  Min(alpha.water) = -4.54660348028e-36  Max(alpha.water) = 1
MULES: Correcting alpha.water
MULES: Correcting alpha.water
MULES: Correcting alpha.water
Phase-1 volume fraction = 0.00256720395446  Min(alpha.water) = -2.56749448991e-05  Max(alpha.water) = 1
smoothSolver:  Solving for alpha.water, Initial residual = 0.0448325002018, Final residual = 2.31881735076e-09, No Iterations 7
Phase-1 volume fraction = 0.00257002094029  Min(alpha.water) = -4.54660348028e-36  Max(alpha.water) = 1
MULES: Correcting alpha.water
MULES: Correcting alpha.water
MULES: Correcting alpha.water
Phase-1 volume fraction = 0.00257013483259  Min(alpha.water) = -2.92629427026e-05  Max(alpha.water) = 1
DILUPBiCGStab:  Solving for p_rgh, Initial residual = 0.0112740091273, Final residual = 0.000104921110879, No Iterations 4
time step continuity errors : sum local = 9.11090217425e-05, global = 4.14596287019e-05, cumulative = -0.00187684543463
DILUPBiCGStab:  Solving for p_rgh, Initial residual = 0.000876038162455, Final residual = 7.80529398055e-06, No Iterations 67
time step continuity errors : sum local = 6.78494079769e-06, global = 6.57765074352e-06, cumulative = -0.00187026778389
DILUPBiCGStab:  Solving for p_rgh, Initial residual = 0.000312951871423, Final residual = 7.56080740958e-13, No Iterations 183
time step continuity errors : sum local = 7.43409004477e-13, global = 5.12194553032e-13, cumulative = -0.00187026778337
smoothSolver:  Solving for epsilon, Initial residual = 0.0539598739985, Final residual = 3.37799115762e-07, No Iterations 9
smoothSolver:  Solving for k, Initial residual = 0.0292594751812, Final residual = 7.80284401722e-07, No Iterations 9
ExecutionTime = 95.69 s  ClockTime = 116 s

Courant Number mean: 0.812352110746 max: 4.69244798419
Interface Courant Number mean: 0.0640969003384 max: 1.81135158489
deltaT = 0.00808080808081
Time = 4

PIMPLE: iteration 1
cellVolumeWeight : detected 2 mesh regions

    zone:0 nCells:6958
    zone:1 nCells:472
Marking patch-cells on zone 0
Marking patch-cells on zone 1

After patch analysis : nCells : 7430
    other  : 7044
    patch  : 314
    overset: 72

Creating mesh-to-mesh addressing for region0 and region0 regions using cellVolumeWeight
    Overlap volume: 0.224993686807
cellVolumeWeight : detected 4 mesh regions after overset

Front : fraction:1 size:98
Overset analysis : nCells : 7430
    calculated   : 7031
    interpolated : 52
    hole         : 347

Execution time for mesh.update() = 0.07 s
smoothSolver:  Solving for alpha.water, Initial residual = 0.0443769820421, Final residual = 2.27505017207e-09, No Iterations 7
Phase-1 volume fraction = 0.00257236878413  Min(alpha.water) = -4.54660348028e-36  Max(alpha.water) = 1
MULES: Correcting alpha.water
MULES: Correcting alpha.water
MULES: Correcting alpha.water
Phase-1 volume fraction = 0.00257240344235  Min(alpha.water) = -4.54660348028e-36  Max(alpha.water) = 1
smoothSolver:  Solving for alpha.water, Initial residual = 0.0450140786499, Final residual = 1.74736567786e-09, No Iterations 7
Phase-1 volume fraction = 0.00257466682241  Min(alpha.water) = -4.54660348028e-36  Max(alpha.water) = 1
MULES: Correcting alpha.water
MULES: Correcting alpha.water
MULES: Correcting alpha.water
Phase-1 volume fraction = 0.00257469369827  Min(alpha.water) = -4.08238435731e-22  Max(alpha.water) = 1
DILUPBiCGStab:  Solving for p_rgh, Initial residual = 0.092543829907, Final residual = 0.000837394371828, No Iterations 3
time step continuity errors : sum local = 0.000825750317783, global = -7.30347071982e-05, cumulative = -0.00194330249057
DILUPBiCGStab:  Solving for p_rgh, Initial residual = 0.00292474394632, Final residual = 2.88125280045e-05, No Iterations 30
time step continuity errors : sum local = 2.84118008065e-05, global = -2.48876250341e-05, cumulative = -0.00196819011561
DILUPBiCGStab:  Solving for p_rgh, Initial residual = 0.000823737386131, Final residual = 8.71269824894e-13, No Iterations 181
time step continuity errors : sum local = 8.22183672349e-13, global = -3.07448633633e-13, cumulative = -0.00196819011591
PIMPLE: iteration 2
smoothSolver:  Solving for alpha.water, Initial residual = 0.0604873689918, Final residual = 1.62595078202e-09, No Iterations 7
Phase-1 volume fraction = 0.00257265740258  Min(alpha.water) = -4.54660348028e-36  Max(alpha.water) = 1
MULES: Correcting alpha.water
MULES: Correcting alpha.water
MULES: Correcting alpha.water
Phase-1 volume fraction = 0.00257275317458  Min(alpha.water) = -2.00669611499e-22  Max(alpha.water) = 1
smoothSolver:  Solving for alpha.water, Initial residual = 0.0450561563895, Final residual = 1.60052028335e-09, No Iterations 7
Phase-1 volume fraction = 0.00257545905317  Min(alpha.water) = -4.54660348028e-36  Max(alpha.water) = 1
MULES: Correcting alpha.water
MULES: Correcting alpha.water
MULES: Correcting alpha.water
Phase-1 volume fraction = 0.00257554352907  Min(alpha.water) = -4.25896826961e-07  Max(alpha.water) = 1
DILUPBiCGStab:  Solving for p_rgh, Initial residual = 0.0112412006491, Final residual = 9.57291677451e-05, No Iterations 4
time step continuity errors : sum local = 8.44138624934e-05, global = -4.65789663669e-06, cumulative = -0.00197284801255
DILUPBiCGStab:  Solving for p_rgh, Initial residual = 0.000962669316716, Final residual = 9.22834303007e-06, No Iterations 56
time step continuity errors : sum local = 8.12603996969e-06, global = 5.3352826483e-06, cumulative = -0.0019675127299
DILUPBiCGStab:  Solving for p_rgh, Initial residual = 0.000289330957095, Final residual = 5.17971161917e-13, No Iterations 184
time step continuity errors : sum local = 4.82944886408e-13, global = -2.6731744431e-13, cumulative = -0.00196751273017
smoothSolver:  Solving for epsilon, Initial residual = 0.0535154931945, Final residual = 3.16889677895e-07, No Iterations 9
smoothSolver:  Solving for k, Initial residual = 0.028912117524, Final residual = 7.98200935566e-07, No Iterations 9
ExecutionTime = 96.07 s  ClockTime = 117 s

End

