/*---------------------------------------------------------------------------*\
| =========                 |                                                 |
| \\      /  F ield         | OpenFOAM: The Open Source CFD Toolbox           |
|  \\    /   O peration     | Version:  2206                                  |
|   \\  /    A nd           | Website:  www.openfoam.com                      |
|    \\/     M anipulation  |                                                 |
\*---------------------------------------------------------------------------*/
Build  : 76d719d1e6-20220624 OPENFOAM=2206 version=v2206
Arch   : "LSB;label=32;scalar=64"
Exec   : overInterDyMFoam
Date   : Apr 18 2023
Time   : 14:30:55
Host   : kruemmer.ihs.uni-stuttgart.de
PID    : 8105
I/O    : uncollated
Case   : /mnt/scratch/mzeitler/MasterArbeit/SpanPhase1/Test
nProcs : 1
trapFpe: Floating point exception trapping enabled (FOAM_SIGFPE).
fileModificationChecking : Monitoring run-time modified files using timeStampMaster (fileModificationSkew 5, maxFileModificationPolls 20)
allowSystemOperations : Allowing user-supplied system call operations

// * * * * * * * * * * * * * * * * * * * * * * * * * * * * * * * * * * * * * //
Create time

Overriding DebugSwitches according to controlDict
    overset         0;

    dynamicOversetFvMesh 0;

    cellVolumeWeight 0;

Create mesh for time = 0

Selecting dynamicFvMesh dynamicOversetFvMesh
Selecting motion solver: multiSolidBodyMotionSolver
Applying motion to entire mesh
Selecting solid-body motion function rotatingMotion
Applying solid body motion rotatingMotion to 13065 points of cellZone oversetZone

PIMPLE: no residual control data found. Calculations will employ 5 corrector loops

Reading field p_rgh

--> FOAM Warning : 
    From void Foam::polyBoundaryMesh::calcGroupIDs() const
    in file meshes/polyMesh/polyBoundaryMesh/polyBoundaryMesh.C at line 100
    Removed group 'wall' which clashes with patch 4 of the same name.
Reading field U

Reading/calculating face flux field phi

Creating cellMask field to block out hole cells

--> FOAM Warning : 
    From bool Foam::oversetPolyPatch::master() const
    in file oversetPolyPatch/oversetPolyPatch.C at line 145
    The master overset patch is not the first patch. Generally the first patch should be an overset patch to guarantee consistent operation.
Creating interpolatedCells field 

Reading transportProperties

Selecting incompressible transport model Newtonian
Selecting incompressible transport model Newtonian
Selecting turbulence model type laminar
Selecting laminar stress model Stokes

Reading g

Reading hRef
Calculating field g.h

No MRF models present

No finite volume options present
diagonalPBiCGStab:  Solving for pcorr:  solution singularity
diagonalPBiCGStab:  Solving for pcorr:  solution singularity
diagonalPBiCGStab:  Solving for pcorr:  solution singularity
diagonalPBiCGStab:  Solving for pcorr:  solution singularity
Reading/calculating face velocity Uf

Courant Number mean: 0 max: 0

Starting time loop

Courant Number mean: 0 max: 0
Interface Courant Number mean: 0 max: 0
Time = 5e-05

PIMPLE: iteration 1
cellVolumeWeight : detected 2 mesh regions

    zone:0 nCells:324716
    zone:1 nCells:8512
Marking patch-cells on zone 0
Marking patch-cells on zone 1

After patch analysis : nCells : 333228
    other  : 299527
    patch  : 29331
    overset: 4370

Creating mesh-to-mesh addressing for region0 and region0 regions using cellVolumeWeight
    Overlap volume: 4.58113e-11
cellVolumeWeight : detected 6 mesh regions after overset

Front : fraction:1 size:8749
Overset analysis : nCells : 333228
    calculated   : 324590
    interpolated : 4034
    hole         : 4604

swak4Foam: Allocating new repository for sampledGlobalVariables
Execution time for mesh.update() = 1.48 s
smoothSolver:  Solving for alpha.water, Initial residual = 1, Final residual = 1.94295e-17, No Iterations 1
Phase-1 volume fraction = 0.000108652  Min(alpha.water) = 0  Max(alpha.water) = 1
MULES: Correcting alpha.water
MULES: Correcting alpha.water
Phase-1 volume fraction = 0.000108652  Min(alpha.water) = 0  Max(alpha.water) = 1
smoothSolver:  Solving for alpha.water, Initial residual = 0.226497, Final residual = 7.92035e-18, No Iterations 1
Phase-1 volume fraction = 0.000181465  Min(alpha.water) = 0  Max(alpha.water) = 1
MULES: Correcting alpha.water
MULES: Correcting alpha.water
Phase-1 volume fraction = 0.000181465  Min(alpha.water) = 0  Max(alpha.water) = 1
smoothSolver:  Solving for alpha.water, Initial residual = 0.105279, Final residual = 3.66238e-18, No Iterations 1
Phase-1 volume fraction = 0.000230531  Min(alpha.water) = 0  Max(alpha.water) = 1
MULES: Correcting alpha.water
MULES: Correcting alpha.water
Phase-1 volume fraction = 0.000230531  Min(alpha.water) = 0  Max(alpha.water) = 1
smoothSolver:  Solving for alpha.water, Initial residual = 0.0588212, Final residual = 3.03656e-18, No Iterations 1
Phase-1 volume fraction = 0.000263795  Min(alpha.water) = 0  Max(alpha.water) = 1
MULES: Correcting alpha.water
MULES: Correcting alpha.water
Phase-1 volume fraction = 0.000263795  Min(alpha.water) = 0  Max(alpha.water) = 1
smoothSolver:  Solving for alpha.water, Initial residual = 0.0357443, Final residual = 0, No Iterations 1
Phase-1 volume fraction = 0.000286493  Min(alpha.water) = 0  Max(alpha.water) = 1
MULES: Correcting alpha.water
MULES: Correcting alpha.water
Phase-1 volume fraction = 0.000286493  Min(alpha.water) = 0  Max(alpha.water) = 1
diagonalPBiCGStab:  Solving for p_rgh, Initial residual = 1, Final residual = 0.201909, No Iterations 50
diagonalPBiCGStab:  Solving for p_rgh, Initial residual = 0.0734061, Final residual = 0.0803361, No Iterations 50
diagonalPBiCGStab:  Solving for p_rgh, Initial residual = 0.0201065, Final residual = 0.0067965, No Iterations 50
diagonalPBiCGStab:  Solving for p_rgh, Initial residual = 0.0103615, Final residual = 0.00492156, No Iterations 50
time step continuity errors : sum local = 0.000817643, global = -0.000698005, cumulative = -0.000698005
diagonalPBiCGStab:  Solving for p_rgh, Initial residual = 0.0114341, Final residual = 0.00909653, No Iterations 50
diagonalPBiCGStab:  Solving for p_rgh, Initial residual = 0.0112912, Final residual = 0.00542733, No Iterations 50
diagonalPBiCGStab:  Solving for p_rgh, Initial residual = 0.00849105, Final residual = 0.00359735, No Iterations 50
diagonalPBiCGStab:  Solving for p_rgh, Initial residual = 0.00452536, Final residual = 0.00283133, No Iterations 50
time step continuity errors : sum local = 0.000795357, global = -0.000552401, cumulative = -0.00125041
diagonalPBiCGStab:  Solving for p_rgh, Initial residual = 0.00486372, Final residual = 0.00186777, No Iterations 50
diagonalPBiCGStab:  Solving for p_rgh, Initial residual = 0.00296642, Final residual = 0.00184834, No Iterations 50
diagonalPBiCGStab:  Solving for p_rgh, Initial residual = 0.00234395, Final residual = 0.00164804, No Iterations 50
diagonalPBiCGStab:  Solving for p_rgh, Initial residual = 0.00219173, Final residual = 0.00129245, No Iterations 50
time step continuity errors : sum local = 0.000529555, global = -0.000438977, cumulative = -0.00168938
PIMPLE: iteration 2
smoothSolver:  Solving for alpha.water, Initial residual = 0.494276, Final residual = 4.87537e-09, No Iterations 3
Phase-1 volume fraction = 0.000157967  Min(alpha.water) = 0  Max(alpha.water) = 1
MULES: Correcting alpha.water
MULES: Correcting alpha.water
Phase-1 volume fraction = 0.000157967  Min(alpha.water) = -7.59209e-15  Max(alpha.water) = 1
smoothSolver:  Solving for alpha.water, Initial residual = 0.241639, Final residual = 8.06702e-09, No Iterations 3
Phase-1 volume fraction = 0.000315921  Min(alpha.water) = -5.81826e-50  Max(alpha.water) = 1
MULES: Correcting alpha.water
MULES: Correcting alpha.water
Phase-1 volume fraction = 0.000315921  Min(alpha.water) = -4.37904e-18  Max(alpha.water) = 1
smoothSolver:  Solving for alpha.water, Initial residual = 0.154349, Final residual = 6.02638e-09, No Iterations 3
Phase-1 volume fraction = 0.000473857  Min(alpha.water) = -2.36513e-58  Max(alpha.water) = 1
MULES: Correcting alpha.water
MULES: Correcting alpha.water
Phase-1 volume fraction = 0.000473857  Min(alpha.water) = -4.54339e-18  Max(alpha.water) = 1
smoothSolver:  Solving for alpha.water, Initial residual = 0.116313, Final residual = 5.60074e-09, No Iterations 3
Phase-1 volume fraction = 0.000631767  Min(alpha.water) = -8.22325e-78  Max(alpha.water) = 1
MULES: Correcting alpha.water
MULES: Correcting alpha.water
Phase-1 volume fraction = 0.000631767  Min(alpha.water) = -3.68171e-18  Max(alpha.water) = 1
smoothSolver:  Solving for alpha.water, Initial residual = 0.0964111, Final residual = 6.2752e-09, No Iterations 3
Phase-1 volume fraction = 0.000789644  Min(alpha.water) = -7.28705e-80  Max(alpha.water) = 1
MULES: Correcting alpha.water
MULES: Correcting alpha.water
Phase-1 volume fraction = 0.000789644  Min(alpha.water) = -3.65541e-19  Max(alpha.water) = 1
diagonalPBiCGStab:  Solving for p_rgh, Initial residual = 0.00647523, Final residual = 0.00117121, No Iterations 50
diagonalPBiCGStab:  Solving for p_rgh, Initial residual = 0.00214137, Final residual = 0.000876305, No Iterations 50
diagonalPBiCGStab:  Solving for p_rgh, Initial residual = 0.00134295, Final residual = 0.000835289, No Iterations 50
diagonalPBiCGStab:  Solving for p_rgh, Initial residual = 0.00110633, Final residual = 0.000595034, No Iterations 50
time step continuity errors : sum local = 0.000304052, global = -0.000276043, cumulative = -0.00196543
diagonalPBiCGStab:  Solving for p_rgh, Initial residual = 0.00207919, Final residual = 0.000511779, No Iterations 50
diagonalPBiCGStab:  Solving for p_rgh, Initial residual = 0.000795911, Final residual = 0.000672519, No Iterations 50
diagonalPBiCGStab:  Solving for p_rgh, Initial residual = 0.00091702, Final residual = 0.000321351, No Iterations 50
diagonalPBiCGStab:  Solving for p_rgh, Initial residual = 0.000579111, Final residual = 0.000377237, No Iterations 50
time step continuity errors : sum local = 0.000209831, global = -0.000145374, cumulative = -0.0021108
diagonalPBiCGStab:  Solving for p_rgh, Initial residual = 0.00100922, Final residual = 0.00016706, No Iterations 50
diagonalPBiCGStab:  Solving for p_rgh, Initial residual = 0.000376548, Final residual = 0.000203126, No Iterations 50
diagonalPBiCGStab:  Solving for p_rgh, Initial residual = 0.000294962, Final residual = 0.000161186, No Iterations 50
diagonalPBiCGStab:  Solving for p_rgh, Initial residual = 0.000252262, Final residual = 0.000156219, No Iterations 50
time step continuity errors : sum local = 9.28376e-05, global = -7.73571e-05, cumulative = -0.00218816
PIMPLE: iteration 3
smoothSolver:  Solving for alpha.water, Initial residual = 0.527148, Final residual = 4.56952e-10, No Iterations 4
Phase-1 volume fraction = 0.000160133  Min(alpha.water) = -2.96064e-119  Max(alpha.water) = 1
MULES: Correcting alpha.water
MULES: Correcting alpha.water
Phase-1 volume fraction = 0.000160133  Min(alpha.water) = -5.1449e-15  Max(alpha.water) = 1
smoothSolver:  Solving for alpha.water, Initial residual = 0.242647, Final residual = 3.92483e-10, No Iterations 4
Phase-1 volume fraction = 0.000320267  Min(alpha.water) = -4.90908e-96  Max(alpha.water) = 1
MULES: Correcting alpha.water
MULES: Correcting alpha.water
Phase-1 volume fraction = 0.000320267  Min(alpha.water) = -4.14296e-16  Max(alpha.water) = 1
smoothSolver:  Solving for alpha.water, Initial residual = 0.154907, Final residual = 4.22594e-10, No Iterations 4
Phase-1 volume fraction = 0.0004804  Min(alpha.water) = -1.75196e-95  Max(alpha.water) = 1
MULES: Correcting alpha.water
MULES: Correcting alpha.water
Phase-1 volume fraction = 0.0004804  Min(alpha.water) = -7.7892e-16  Max(alpha.water) = 1
smoothSolver:  Solving for alpha.water, Initial residual = 0.111512, Final residual = 4.91595e-10, No Iterations 4
Phase-1 volume fraction = 0.000640533  Min(alpha.water) = -1.36405e-93  Max(alpha.water) = 1
MULES: Correcting alpha.water
MULES: Correcting alpha.water
Phase-1 volume fraction = 0.000640533  Min(alpha.water) = -6.30767e-16  Max(alpha.water) = 1
smoothSolver:  Solving for alpha.water, Initial residual = 0.0893145, Final residual = 6.29423e-10, No Iterations 4
Phase-1 volume fraction = 0.000800666  Min(alpha.water) = -7.79621e-93  Max(alpha.water) = 1
MULES: Correcting alpha.water
MULES: Correcting alpha.water
Phase-1 volume fraction = 0.000800666  Min(alpha.water) = -1.88148e-17  Max(alpha.water) = 1
diagonalPBiCGStab:  Solving for p_rgh, Initial residual = 0.0148244, Final residual = 0.000302641, No Iterations 50
diagonalPBiCGStab:  Solving for p_rgh, Initial residual = 0.00118015, Final residual = 0.000303807, No Iterations 50
diagonalPBiCGStab:  Solving for p_rgh, Initial residual = 0.00063625, Final residual = 0.000200861, No Iterations 50
diagonalPBiCGStab:  Solving for p_rgh, Initial residual = 0.000408055, Final residual = 0.000428365, No Iterations 50
time step continuity errors : sum local = 0.000260218, global = -5.81133e-05, cumulative = -0.00224627
diagonalPBiCGStab:  Solving for p_rgh, Initial residual = 0.00135987, Final residual = 0.000131975, No Iterations 50
diagonalPBiCGStab:  Solving for p_rgh, Initial residual = 0.000492877, Final residual = 0.000132576, No Iterations 50
diagonalPBiCGStab:  Solving for p_rgh, Initial residual = 0.000321857, Final residual = 7.98238e-05, No Iterations 27
diagonalPBiCGStab:  Solving for p_rgh, Initial residual = 0.000157095, Final residual = 8.65589e-05, No Iterations 3
time step continuity errors : sum local = 5.30864e-05, global = 2.11546e-05, cumulative = -0.00222512
diagonalPBiCGStab:  Solving for p_rgh, Initial residual = 0.000463391, Final residual = 9.94934e-05, No Iterations 43
diagonalPBiCGStab:  Solving for p_rgh, Initial residual = 0.00019976, Final residual = 0.000141988, No Iterations 50
diagonalPBiCGStab:  Solving for p_rgh, Initial residual = 0.000219574, Final residual = 9.97312e-05, No Iterations 33
diagonalPBiCGStab:  Solving for p_rgh, Initial residual = 0.000140571, Final residual = 9.49264e-05, No Iterations 50
time step continuity errors : sum local = 5.73538e-05, global = 4.97149e-05, cumulative = -0.0021754
PIMPLE: iteration 4
smoothSolver:  Solving for alpha.water, Initial residual = 0.53692, Final residual = 1.16569e-09, No Iterations 4
Phase-1 volume fraction = 0.000159503  Min(alpha.water) = -1.78449e-106  Max(alpha.water) = 1
MULES: Correcting alpha.water
MULES: Correcting alpha.water
Phase-1 volume fraction = 0.000159503  Min(alpha.water) = -4.15478e-13  Max(alpha.water) = 1
smoothSolver:  Solving for alpha.water, Initial residual = 0.241956, Final residual = 7.85727e-10, No Iterations 4
Phase-1 volume fraction = 0.000319006  Min(alpha.water) = -3.55135e-91  Max(alpha.water) = 1
MULES: Correcting alpha.water
MULES: Correcting alpha.water
Phase-1 volume fraction = 0.000319006  Min(alpha.water) = -3.25373e-12  Max(alpha.water) = 1
smoothSolver:  Solving for alpha.water, Initial residual = 0.154522, Final residual = 8.55226e-10, No Iterations 4
Phase-1 volume fraction = 0.000478508  Min(alpha.water) = -1.57655e-12  Max(alpha.water) = 1
MULES: Correcting alpha.water
MULES: Correcting alpha.water
Phase-1 volume fraction = 0.000478508  Min(alpha.water) = -1.4021e-16  Max(alpha.water) = 1
smoothSolver:  Solving for alpha.water, Initial residual = 0.111328, Final residual = 9.93772e-10, No Iterations 4
Phase-1 volume fraction = 0.000638011  Min(alpha.water) = -8.79112e-17  Max(alpha.water) = 1
MULES: Correcting alpha.water
MULES: Correcting alpha.water
Phase-1 volume fraction = 0.000638011  Min(alpha.water) = -4.04664e-15  Max(alpha.water) = 1
smoothSolver:  Solving for alpha.water, Initial residual = 0.0912417, Final residual = 1.25807e-09, No Iterations 4
Phase-1 volume fraction = 0.000797514  Min(alpha.water) = -2.97376e-16  Max(alpha.water) = 1
MULES: Correcting alpha.water
MULES: Correcting alpha.water
Phase-1 volume fraction = 0.000797514  Min(alpha.water) = -1.68778e-11  Max(alpha.water) = 1
diagonalPBiCGStab:  Solving for p_rgh, Initial residual = 0.00575378, Final residual = 0.000319619, No Iterations 50
diagonalPBiCGStab:  Solving for p_rgh, Initial residual = 0.000985236, Final residual = 0.000476681, No Iterations 50
diagonalPBiCGStab:  Solving for p_rgh, Initial residual = 0.000872882, Final residual = 0.000569607, No Iterations 50
diagonalPBiCGStab:  Solving for p_rgh, Initial residual = 0.00092984, Final residual = 0.000342345, No Iterations 50
time step continuity errors : sum local = 0.000187976, global = 0.00016295, cumulative = -0.00201245
diagonalPBiCGStab:  Solving for p_rgh, Initial residual = 0.00133273, Final residual = 0.000456222, No Iterations 50
diagonalPBiCGStab:  Solving for p_rgh, Initial residual = 0.000784277, Final residual = 0.000550558, No Iterations 50
diagonalPBiCGStab:  Solving for p_rgh, Initial residual = 0.0008363, Final residual = 0.000379933, No Iterations 50
diagonalPBiCGStab:  Solving for p_rgh, Initial residual = 0.000619934, Final residual = 0.000458171, No Iterations 50
time step continuity errors : sum local = 0.000230758, global = 0.000167093, cumulative = -0.00184536
diagonalPBiCGStab:  Solving for p_rgh, Initial residual = 0.000892233, Final residual = 0.000377818, No Iterations 50
diagonalPBiCGStab:  Solving for p_rgh, Initial residual = 0.000608252, Final residual = 0.000472978, No Iterations 50
diagonalPBiCGStab:  Solving for p_rgh, Initial residual = 0.000662679, Final residual = 0.000358261, No Iterations 50
diagonalPBiCGStab:  Solving for p_rgh, Initial residual = 0.000524703, Final residual = 0.000463914, No Iterations 50
time step continuity errors : sum local = 0.000211712, global = 0.000144349, cumulative = -0.00170101
PIMPLE: iteration 5
smoothSolver:  Solving for alpha.water, Initial residual = 0.532995, Final residual = 1.62068e-09, No Iterations 4
Phase-1 volume fraction = 0.000159851  Min(alpha.water) = -2.97306e-84  Max(alpha.water) = 1
MULES: Correcting alpha.water
MULES: Correcting alpha.water
Phase-1 volume fraction = 0.000159851  Min(alpha.water) = -3.5284e-13  Max(alpha.water) = 1
smoothSolver:  Solving for alpha.water, Initial residual = 0.241597, Final residual = 1.01107e-09, No Iterations 4
Phase-1 volume fraction = 0.000319703  Min(alpha.water) = -5.57772e-65  Max(alpha.water) = 1
MULES: Correcting alpha.water
MULES: Correcting alpha.water
Phase-1 volume fraction = 0.000319703  Min(alpha.water) = -7.25854e-16  Max(alpha.water) = 1
smoothSolver:  Solving for alpha.water, Initial residual = 0.154334, Final residual = 1.09862e-09, No Iterations 4
Phase-1 volume fraction = 0.000479554  Min(alpha.water) = -1.15653e-87  Max(alpha.water) = 1
MULES: Correcting alpha.water
MULES: Correcting alpha.water
Phase-1 volume fraction = 0.000479554  Min(alpha.water) = -8.43272e-19  Max(alpha.water) = 1
smoothSolver:  Solving for alpha.water, Initial residual = 0.111932, Final residual = 1.26377e-09, No Iterations 4
Phase-1 volume fraction = 0.000639405  Min(alpha.water) = -4.50836e-19  Max(alpha.water) = 1
MULES: Correcting alpha.water
MULES: Correcting alpha.water
Phase-1 volume fraction = 0.000639405  Min(alpha.water) = -5.5337e-24  Max(alpha.water) = 1
smoothSolver:  Solving for alpha.water, Initial residual = 0.091437, Final residual = 1.5805e-09, No Iterations 4
Phase-1 volume fraction = 0.000799256  Min(alpha.water) = -2.48326e-24  Max(alpha.water) = 1
MULES: Correcting alpha.water
MULES: Correcting alpha.water
Phase-1 volume fraction = 0.000799256  Min(alpha.water) = -9.53794e-24  Max(alpha.water) = 1
diagonalPBiCGStab:  Solving for p_rgh, Initial residual = 0.0113579, Final residual = 0.000746325, No Iterations 50
diagonalPBiCGStab:  Solving for p_rgh, Initial residual = 0.00196385, Final residual = 0.000310853, No Iterations 50
diagonalPBiCGStab:  Solving for p_rgh, Initial residual = 0.000827677, Final residual = 0.000290861, No Iterations 50
diagonalPBiCGStab:  Solving for p_rgh, Initial residual = 0.000532239, Final residual = 0.000284434, No Iterations 50
time step continuity errors : sum local = 0.000119389, global = 9.54682e-05, cumulative = -0.00160554
diagonalPBiCGStab:  Solving for p_rgh, Initial residual = 0.00126288, Final residual = 0.000233451, No Iterations 50
diagonalPBiCGStab:  Solving for p_rgh, Initial residual = 0.000524564, Final residual = 0.000336786, No Iterations 50
diagonalPBiCGStab:  Solving for p_rgh, Initial residual = 0.000524005, Final residual = 0.000229262, No Iterations 50
diagonalPBiCGStab:  Solving for p_rgh, Initial residual = 0.000355987, Final residual = 0.00025331, No Iterations 50
time step continuity errors : sum local = 9.83465e-05, global = 8.07064e-05, cumulative = -0.00152483
diagonalPBiCGStab:  Solving for p_rgh, Initial residual = 0.000550539, Final residual = 0.000204673, No Iterations 50
diagonalPBiCGStab:  Solving for p_rgh, Initial residual = 0.000305414, Final residual = 0.000232993, No Iterations 50
diagonalPBiCGStab:  Solving for p_rgh, Initial residual = 0.00031119, Final residual = 0.00020155, No Iterations 50
diagonalPBiCGStab:  Solving for p_rgh, Initial residual = 0.000256517, Final residual = 0.000232625, No Iterations 50
time step continuity errors : sum local = 8.48785e-05, global = 6.25881e-05, cumulative = -0.00146225
ExecutionTime = 78.36 s  ClockTime = 79 s

Courant Number mean: 0.144156 max: 9.9062
Interface Courant Number mean: 0.00448738 max: 6.36886
Time = 0.0001

PIMPLE: iteration 1
cellVolumeWeight : detected 2 mesh regions

    zone:0 nCells:324716
    zone:1 nCells:8512
Marking patch-cells on zone 0
Marking patch-cells on zone 1

After patch analysis : nCells : 333228
    other  : 299527
    patch  : 29331
    overset: 4370

Creating mesh-to-mesh addressing for region0 and region0 regions using cellVolumeWeight
    Overlap volume: 4.47594e-11
cellVolumeWeight : detected 6 mesh regions after overset

Front : fraction:1 size:8754
Overset analysis : nCells : 333228
    calculated   : 324590
    interpolated : 4037
    hole         : 4601

Execution time for mesh.update() = 1.45 s
smoothSolver:  Solving for alpha.water, Initial residual = 0.0772309, Final residual = 2.64149e-09, No Iterations 4
Phase-1 volume fraction = 0.000963401  Min(alpha.water) = -7.57079e-95  Max(alpha.water) = 1
MULES: Correcting alpha.water
MULES: Correcting alpha.water
Phase-1 volume fraction = 0.000963401  Min(alpha.water) = -3.48396e-15  Max(alpha.water) = 1
smoothSolver:  Solving for alpha.water, Initial residual = 0.0676971, Final residual = 3.48903e-09, No Iterations 4
Phase-1 volume fraction = 0.00112826  Min(alpha.water) = -3.11138e-93  Max(alpha.water) = 1
MULES: Correcting alpha.water
MULES: Correcting alpha.water
Phase-1 volume fraction = 0.00112826  Min(alpha.water) = -1.49186e-20  Max(alpha.water) = 1
smoothSolver:  Solving for alpha.water, Initial residual = 0.0614829, Final residual = 4.70412e-09, No Iterations 4
Phase-1 volume fraction = 0.00129388  Min(alpha.water) = -2.9167e-96  Max(alpha.water) = 1
MULES: Correcting alpha.water
MULES: Correcting alpha.water
Phase-1 volume fraction = 0.00129388  Min(alpha.water) = -1.49877e-20  Max(alpha.water) = 1
smoothSolver:  Solving for alpha.water, Initial residual = 0.0551654, Final residual = 6.51888e-09, No Iterations 4
Phase-1 volume fraction = 0.00146026  Min(alpha.water) = -1.27123e-95  Max(alpha.water) = 1
MULES: Correcting alpha.water
MULES: Correcting alpha.water
Phase-1 volume fraction = 0.00146026  Min(alpha.water) = -1.99843e-20  Max(alpha.water) = 1
smoothSolver:  Solving for alpha.water, Initial residual = 0.0501688, Final residual = 9.28899e-09, No Iterations 4
Phase-1 volume fraction = 0.00162735  Min(alpha.water) = -3.83025e-95  Max(alpha.water) = 1
MULES: Correcting alpha.water
MULES: Correcting alpha.water
Phase-1 volume fraction = 0.00162735  Min(alpha.water) = -5.55039e-21  Max(alpha.water) = 1
diagonalPBiCGStab:  Solving for p_rgh, Initial residual = 0.0119345, Final residual = 0.000550655, No Iterations 50
diagonalPBiCGStab:  Solving for p_rgh, Initial residual = 0.00188023, Final residual = 0.000711466, No Iterations 50
diagonalPBiCGStab:  Solving for p_rgh, Initial residual = 0.00143954, Final residual = 0.000239732, No Iterations 50
diagonalPBiCGStab:  Solving for p_rgh, Initial residual = 0.000580351, Final residual = 0.00027935, No Iterations 50
time step continuity errors : sum local = 9.79957e-05, global = 7.247e-05, cumulative = -0.00138978
diagonalPBiCGStab:  Solving for p_rgh, Initial residual = 0.00231769, Final residual = 0.000407964, No Iterations 50
diagonalPBiCGStab:  Solving for p_rgh, Initial residual = 0.000867643, Final residual = 0.000505056, No Iterations 50
diagonalPBiCGStab:  Solving for p_rgh, Initial residual = 0.000900984, Final residual = 0.000409004, No Iterations 50
diagonalPBiCGStab:  Solving for p_rgh, Initial residual = 0.000717935, Final residual = 0.000456391, No Iterations 50
time step continuity errors : sum local = 0.000147021, global = 0.000113394, cumulative = -0.00127638
diagonalPBiCGStab:  Solving for p_rgh, Initial residual = 0.0016011, Final residual = 0.000426001, No Iterations 50
diagonalPBiCGStab:  Solving for p_rgh, Initial residual = 0.000790589, Final residual = 0.000864416, No Iterations 50
diagonalPBiCGStab:  Solving for p_rgh, Initial residual = 0.00127832, Final residual = 0.000429818, No Iterations 50
diagonalPBiCGStab:  Solving for p_rgh, Initial residual = 0.000834206, Final residual = 0.00075547, No Iterations 50
time step continuity errors : sum local = 0.000209896, global = 0.000110213, cumulative = -0.00116617
PIMPLE: iteration 2
smoothSolver:  Solving for alpha.water, Initial residual = 0.231152, Final residual = 4.53439e-10, No Iterations 5
Phase-1 volume fraction = 0.000961672  Min(alpha.water) = -1.85815e-134  Max(alpha.water) = 1
MULES: Correcting alpha.water
MULES: Correcting alpha.water
Phase-1 volume fraction = 0.000961672  Min(alpha.water) = -6.27926e-19  Max(alpha.water) = 1
smoothSolver:  Solving for alpha.water, Initial residual = 0.0652888, Final residual = 6.65167e-09, No Iterations 4
Phase-1 volume fraction = 0.00112409  Min(alpha.water) = -4.71328e-85  Max(alpha.water) = 1
MULES: Correcting alpha.water
MULES: Correcting alpha.water
Phase-1 volume fraction = 0.00112409  Min(alpha.water) = -3.07121e-20  Max(alpha.water) = 1
smoothSolver:  Solving for alpha.water, Initial residual = 0.0574031, Final residual = 8.98601e-09, No Iterations 4
Phase-1 volume fraction = 0.0012865  Min(alpha.water) = -1.80648e-92  Max(alpha.water) = 1
MULES: Correcting alpha.water
MULES: Correcting alpha.water
Phase-1 volume fraction = 0.0012865  Min(alpha.water) = -4.26487e-12  Max(alpha.water) = 1
smoothSolver:  Solving for alpha.water, Initial residual = 0.0513819, Final residual = 3.39585e-10, No Iterations 5
Phase-1 volume fraction = 0.00144892  Min(alpha.water) = -9.22905e-23  Max(alpha.water) = 1
MULES: Correcting alpha.water
MULES: Correcting alpha.water
Phase-1 volume fraction = 0.00144892  Min(alpha.water) = -3.84589e-23  Max(alpha.water) = 1
smoothSolver:  Solving for alpha.water, Initial residual = 0.0463311, Final residual = 4.56892e-10, No Iterations 5
Phase-1 volume fraction = 0.00161134  Min(alpha.water) = -2.48249e-23  Max(alpha.water) = 1
MULES: Correcting alpha.water
MULES: Correcting alpha.water
Phase-1 volume fraction = 0.00161134  Min(alpha.water) = -2.14873e-20  Max(alpha.water) = 1
diagonalPBiCGStab:  Solving for p_rgh, Initial residual = 0.0305115, Final residual = 0.00148995, No Iterations 50
diagonalPBiCGStab:  Solving for p_rgh, Initial residual = 0.00528844, Final residual = 0.00192128, No Iterations 50
diagonalPBiCGStab:  Solving for p_rgh, Initial residual = 0.00415692, Final residual = 0.0026821, No Iterations 50
diagonalPBiCGStab:  Solving for p_rgh, Initial residual = 0.00460633, Final residual = 0.00229642, No Iterations 50
time step continuity errors : sum local = 0.000416839, global = 0.000330481, cumulative = -0.000835687
diagonalPBiCGStab:  Solving for p_rgh, Initial residual = 0.00860496, Final residual = 0.00263738, No Iterations 50
diagonalPBiCGStab:  Solving for p_rgh, Initial residual = 0.00526665, Final residual = 0.00609127, No Iterations 50
diagonalPBiCGStab:  Solving for p_rgh, Initial residual = 0.0123044, Final residual = 0.00332767, No Iterations 50
diagonalPBiCGStab:  Solving for p_rgh, Initial residual = 0.00596374, Final residual = 0.00440128, No Iterations 50
time step continuity errors : sum local = 0.000360818, global = 0.00026824, cumulative = -0.000567447
diagonalPBiCGStab:  Solving for p_rgh, Initial residual = 0.0179504, Final residual = 0.00789037, No Iterations 50
diagonalPBiCGStab:  Solving for p_rgh, Initial residual = 0.0153988, Final residual = 0.0095815, No Iterations 50
diagonalPBiCGStab:  Solving for p_rgh, Initial residual = 0.018954, Final residual = 0.0114794, No Iterations 50
diagonalPBiCGStab:  Solving for p_rgh, Initial residual = 0.00905075, Final residual = 0.00795346, No Iterations 50
time step continuity errors : sum local = 0.00028147, global = 0.00020774, cumulative = -0.000359706
PIMPLE: iteration 3
smoothSolver:  Solving for alpha.water, Initial residual = 0.232205, Final residual = 6.40198e-10, No Iterations 5
Phase-1 volume fraction = 0.000961687  Min(alpha.water) = -1.94141e-33  Max(alpha.water) = 1
MULES: Correcting alpha.water
MULES: Correcting alpha.water
Phase-1 volume fraction = 0.000961687  Min(alpha.water) = -4.99794e-26  Max(alpha.water) = 1
smoothSolver:  Solving for alpha.water, Initial residual = 0.0654876, Final residual = 8.05016e-09, No Iterations 4
Phase-1 volume fraction = 0.00112412  Min(alpha.water) = -7.43528e-35  Max(alpha.water) = 1
MULES: Correcting alpha.water
MULES: Correcting alpha.water
Phase-1 volume fraction = 0.00112412  Min(alpha.water) = -7.43528e-35  Max(alpha.water) = 1
smoothSolver:  Solving for alpha.water, Initial residual = 0.0577155, Final residual = 3.34687e-10, No Iterations 5
Phase-1 volume fraction = 0.00128655  Min(alpha.water) = -7.7996e-36  Max(alpha.water) = 1
MULES: Correcting alpha.water
MULES: Correcting alpha.water
Phase-1 volume fraction = 0.00128655  Min(alpha.water) = -4.06183e-26  Max(alpha.water) = 1
smoothSolver:  Solving for alpha.water, Initial residual = 0.0515083, Final residual = 4.39852e-10, No Iterations 5
Phase-1 volume fraction = 0.00144898  Min(alpha.water) = -1.61095e-36  Max(alpha.water) = 1
MULES: Correcting alpha.water
MULES: Correcting alpha.water
Phase-1 volume fraction = 0.00144898  Min(alpha.water) = -3.94719e-30  Max(alpha.water) = 1
smoothSolver:  Solving for alpha.water, Initial residual = 0.0465007, Final residual = 5.83582e-10, No Iterations 5
Phase-1 volume fraction = 0.00161141  Min(alpha.water) = -7.43539e-38  Max(alpha.water) = 1
MULES: Correcting alpha.water
MULES: Correcting alpha.water
Phase-1 volume fraction = 0.00161141  Min(alpha.water) = -8.93927e-26  Max(alpha.water) = 1
diagonalPBiCGStab:  Solving for p_rgh, Initial residual = 0.157883, Final residual = 0.00766417, No Iterations 50
diagonalPBiCGStab:  Solving for p_rgh, Initial residual = 0.0273972, Final residual = 0.00382161, No Iterations 50
diagonalPBiCGStab:  Solving for p_rgh, Initial residual = 0.0085174, Final residual = 0.00138751, No Iterations 50
diagonalPBiCGStab:  Solving for p_rgh, Initial residual = 0.0057458, Final residual = 0.000870366, No Iterations 50
time step continuity errors : sum local = 4.53148e-05, global = -6.21867e-06, cumulative = -0.000365925
diagonalPBiCGStab:  Solving for p_rgh, Initial residual = 0.0141163, Final residual = 0.00196604, No Iterations 50
diagonalPBiCGStab:  Solving for p_rgh, Initial residual = 0.00566891, Final residual = 0.0013315, No Iterations 50
diagonalPBiCGStab:  Solving for p_rgh, Initial residual = 0.00313413, Final residual = 0.000958911, No Iterations 50
diagonalPBiCGStab:  Solving for p_rgh, Initial residual = 0.00225673, Final residual = 0.000849051, No Iterations 50
time step continuity errors : sum local = 3.93085e-05, global = -3.07796e-05, cumulative = -0.000396704
diagonalPBiCGStab:  Solving for p_rgh, Initial residual = 0.00594052, Final residual = 0.00122262, No Iterations 50
diagonalPBiCGStab:  Solving for p_rgh, Initial residual = 0.00305828, Final residual = 0.00122915, No Iterations 50
diagonalPBiCGStab:  Solving for p_rgh, Initial residual = 0.0025637, Final residual = 0.00126086, No Iterations 50
diagonalPBiCGStab:  Solving for p_rgh, Initial residual = 0.00244218, Final residual = 0.00129463, No Iterations 50
time step continuity errors : sum local = 4.67407e-05, global = -3.68071e-05, cumulative = -0.000433512
PIMPLE: iteration 4
smoothSolver:  Solving for alpha.water, Initial residual = 0.230185, Final residual = 8.46274e-10, No Iterations 5
Phase-1 volume fraction = 0.000961535  Min(alpha.water) = -5.96723e-24  Max(alpha.water) = 1
MULES: Correcting alpha.water
MULES: Correcting alpha.water
Phase-1 volume fraction = 0.000961535  Min(alpha.water) = -3.27934e-12  Max(alpha.water) = 1
smoothSolver:  Solving for alpha.water, Initial residual = 0.0645228, Final residual = 9.89006e-09, No Iterations 4
Phase-1 volume fraction = 0.00112381  Min(alpha.water) = -3.64699e-24  Max(alpha.water) = 1
MULES: Correcting alpha.water
MULES: Correcting alpha.water
Phase-1 volume fraction = 0.00112381  Min(alpha.water) = -3.64699e-24  Max(alpha.water) = 1
smoothSolver:  Solving for alpha.water, Initial residual = 0.0572544, Final residual = 4.4828e-10, No Iterations 5
Phase-1 volume fraction = 0.00128609  Min(alpha.water) = -2.1948e-24  Max(alpha.water) = 1
MULES: Correcting alpha.water
MULES: Correcting alpha.water
Phase-1 volume fraction = 0.00128609  Min(alpha.water) = -2.24337e-21  Max(alpha.water) = 1
smoothSolver:  Solving for alpha.water, Initial residual = 0.0510826, Final residual = 5.91482e-10, No Iterations 5
Phase-1 volume fraction = 0.00144837  Min(alpha.water) = -3.27284e-24  Max(alpha.water) = 1
MULES: Correcting alpha.water
MULES: Correcting alpha.water
Phase-1 volume fraction = 0.00144837  Min(alpha.water) = -4.77055e-21  Max(alpha.water) = 1
smoothSolver:  Solving for alpha.water, Initial residual = 0.046126, Final residual = 7.85936e-10, No Iterations 5
Phase-1 volume fraction = 0.00161065  Min(alpha.water) = -7.34659e-24  Max(alpha.water) = 1
MULES: Correcting alpha.water
MULES: Correcting alpha.water
Phase-1 volume fraction = 0.00161065  Min(alpha.water) = -8.40585e-21  Max(alpha.water) = 1
diagonalPBiCGStab:  Solving for p_rgh, Initial residual = 0.220763, Final residual = 0.00593804, No Iterations 50
diagonalPBiCGStab:  Solving for p_rgh, Initial residual = 0.0247364, Final residual = 0.00526082, No Iterations 50
diagonalPBiCGStab:  Solving for p_rgh, Initial residual = 0.00895249, Final residual = 0.0036554, No Iterations 50
diagonalPBiCGStab:  Solving for p_rgh, Initial residual = 0.00771557, Final residual = 0.00200514, No Iterations 50
time step continuity errors : sum local = 7.54547e-05, global = 4.71667e-05, cumulative = -0.000386345
diagonalPBiCGStab:  Solving for p_rgh, Initial residual = 0.0156563, Final residual = 0.00232534, No Iterations 50
diagonalPBiCGStab:  Solving for p_rgh, Initial residual = 0.00575535, Final residual = 0.0019285, No Iterations 50
diagonalPBiCGStab:  Solving for p_rgh, Initial residual = 0.00383907, Final residual = 0.000697429, No Iterations 50
diagonalPBiCGStab:  Solving for p_rgh, Initial residual = 0.001729, Final residual = 0.000859273, No Iterations 50
time step continuity errors : sum local = 3.70014e-05, global = 2.34287e-05, cumulative = -0.000362916
diagonalPBiCGStab:  Solving for p_rgh, Initial residual = 0.00502409, Final residual = 0.000450658, No Iterations 50
diagonalPBiCGStab:  Solving for p_rgh, Initial residual = 0.00161029, Final residual = 0.000479069, No Iterations 50
diagonalPBiCGStab:  Solving for p_rgh, Initial residual = 0.00108028, Final residual = 0.000314363, No Iterations 50
diagonalPBiCGStab:  Solving for p_rgh, Initial residual = 0.000707461, Final residual = 0.000314049, No Iterations 50
time step continuity errors : sum local = 1.49686e-05, global = 1.21373e-05, cumulative = -0.000350779
PIMPLE: iteration 5
smoothSolver:  Solving for alpha.water, Initial residual = 0.227602, Final residual = 9.88154e-10, No Iterations 5
Phase-1 volume fraction = 0.000961544  Min(alpha.water) = -5.75423e-32  Max(alpha.water) = 1
MULES: Correcting alpha.water
MULES: Correcting alpha.water
Phase-1 volume fraction = 0.000961544  Min(alpha.water) = -4.19257e-22  Max(alpha.water) = 1
smoothSolver:  Solving for alpha.water, Initial residual = 0.0652761, Final residual = 3.91782e-10, No Iterations 5
Phase-1 volume fraction = 0.00112383  Min(alpha.water) = -1.36944e-32  Max(alpha.water) = 1
MULES: Correcting alpha.water
MULES: Correcting alpha.water
Phase-1 volume fraction = 0.00112383  Min(alpha.water) = -4.77799e-22  Max(alpha.water) = 1
smoothSolver:  Solving for alpha.water, Initial residual = 0.0570938, Final residual = 5.12696e-10, No Iterations 5
Phase-1 volume fraction = 0.00128612  Min(alpha.water) = -3.26288e-33  Max(alpha.water) = 1
MULES: Correcting alpha.water
MULES: Correcting alpha.water
Phase-1 volume fraction = 0.00128612  Min(alpha.water) = -8.28385e-29  Max(alpha.water) = 1
smoothSolver:  Solving for alpha.water, Initial residual = 0.0510131, Final residual = 6.75765e-10, No Iterations 5
Phase-1 volume fraction = 0.00144841  Min(alpha.water) = -2.56261e-33  Max(alpha.water) = 1
MULES: Correcting alpha.water
MULES: Correcting alpha.water
Phase-1 volume fraction = 0.00144841  Min(alpha.water) = -1.26185e-21  Max(alpha.water) = 1
smoothSolver:  Solving for alpha.water, Initial residual = 0.0460674, Final residual = 8.95037e-10, No Iterations 5
Phase-1 volume fraction = 0.0016107  Min(alpha.water) = -1.94153e-33  Max(alpha.water) = 1
MULES: Correcting alpha.water
MULES: Correcting alpha.water
Phase-1 volume fraction = 0.0016107  Min(alpha.water) = -1.94153e-33  Max(alpha.water) = 1
diagonalPBiCGStab:  Solving for p_rgh, Initial residual = 0.109109, Final residual = 0.00654821, No Iterations 50
diagonalPBiCGStab:  Solving for p_rgh, Initial residual = 0.0159163, Final residual = 0.00295828, No Iterations 50
diagonalPBiCGStab:  Solving for p_rgh, Initial residual = 0.00778442, Final residual = 0.00324867, No Iterations 50
diagonalPBiCGStab:  Solving for p_rgh, Initial residual = 0.00644807, Final residual = 0.00185476, No Iterations 50
time step continuity errors : sum local = 8.16539e-05, global = -6.84043e-05, cumulative = -0.000419183
diagonalPBiCGStab:  Solving for p_rgh, Initial residual = 0.0106969, Final residual = 0.00221651, No Iterations 50
diagonalPBiCGStab:  Solving for p_rgh, Initial residual = 0.00478182, Final residual = 0.00368911, No Iterations 50
diagonalPBiCGStab:  Solving for p_rgh, Initial residual = 0.0118928, Final residual = 0.00406628, No Iterations 50
diagonalPBiCGStab:  Solving for p_rgh, Initial residual = 0.00942491, Final residual = 0.00476862, No Iterations 50
time step continuity errors : sum local = 8.01572e-05, global = -6.18954e-05, cumulative = -0.000481079
diagonalPBiCGStab:  Solving for p_rgh, Initial residual = 0.0172455, Final residual = 0.00614533, No Iterations 50
diagonalPBiCGStab:  Solving for p_rgh, Initial residual = 0.00997192, Final residual = 0.00548389, No Iterations 50
diagonalPBiCGStab:  Solving for p_rgh, Initial residual = 0.00638865, Final residual = 0.00440837, No Iterations 50
diagonalPBiCGStab:  Solving for p_rgh, Initial residual = 0.00508962, Final residual = 0.0027518, No Iterations 50
time step continuity errors : sum local = 6.26938e-05, global = -5.17306e-05, cumulative = -0.000532809
ExecutionTime = 157.39 s  ClockTime = 159 s

Courant Number mean: 0.136644 max: 7.54354
Interface Courant Number mean: 0.00494855 max: 3.40583
Time = 0.00015

PIMPLE: iteration 1
cellVolumeWeight : detected 2 mesh regions

    zone:0 nCells:324716
    zone:1 nCells:8512
Marking patch-cells on zone 0
Marking patch-cells on zone 1

After patch analysis : nCells : 333228
    other  : 299527
    patch  : 29331
    overset: 4370

Creating mesh-to-mesh addressing for region0 and region0 regions using cellVolumeWeight
    Overlap volume: 4.37819e-11
cellVolumeWeight : detected 6 mesh regions after overset

Front : fraction:1 size:8800
Overset analysis : nCells : 333228
    calculated   : 324464
    interpolated : 4285
    hole         : 4479

Execution time for mesh.update() = 1.41 s
smoothSolver:  Solving for alpha.water, Initial residual = 0.0436634, Final residual = 1.37825e-09, No Iterations 5
Phase-1 volume fraction = 0.00177746  Min(alpha.water) = -7.88257e-34  Max(alpha.water) = 1
MULES: Correcting alpha.water
MULES: Correcting alpha.water
Phase-1 volume fraction = 0.00177746  Min(alpha.water) = -1.31565e-11  Max(alpha.water) = 1
smoothSolver:  Solving for alpha.water, Initial residual = 0.0402388, Final residual = 1.69236e-09, No Iterations 5
Phase-1 volume fraction = 0.00194491  Min(alpha.water) = -1.81932e-34  Max(alpha.water) = 1
MULES: Correcting alpha.water
MULES: Correcting alpha.water
Phase-1 volume fraction = 0.00194491  Min(alpha.water) = -1.34648e-11  Max(alpha.water) = 1
smoothSolver:  Solving for alpha.water, Initial residual = 0.0376708, Final residual = 1.81358e-09, No Iterations 5
Phase-1 volume fraction = 0.00211304  Min(alpha.water) = -1.45794e-34  Max(alpha.water) = 1
MULES: Correcting alpha.water
MULES: Correcting alpha.water
Phase-1 volume fraction = 0.00211304  Min(alpha.water) = -3.6993e-11  Max(alpha.water) = 1
smoothSolver:  Solving for alpha.water, Initial residual = 0.0354886, Final residual = 1.66462e-09, No Iterations 5
Phase-1 volume fraction = 0.0022818  Min(alpha.water) = -9.75632e-35  Max(alpha.water) = 1
MULES: Correcting alpha.water
MULES: Correcting alpha.water
Phase-1 volume fraction = 0.0022818  Min(alpha.water) = -6.90003e-11  Max(alpha.water) = 1
smoothSolver:  Solving for alpha.water, Initial residual = 0.0336099, Final residual = 1.3797e-09, No Iterations 5
Phase-1 volume fraction = 0.00245111  Min(alpha.water) = -2.92028e-35  Max(alpha.water) = 1
MULES: Correcting alpha.water
MULES: Correcting alpha.water
Phase-1 volume fraction = 0.00245111  Min(alpha.water) = -1.0435e-10  Max(alpha.water) = 1
diagonalPBiCGStab:  Solving for p_rgh, Initial residual = 0.214742, Final residual = 0.0226997, No Iterations 50
diagonalPBiCGStab:  Solving for p_rgh, Initial residual = 0.0497014, Final residual = 0.017755, No Iterations 50
diagonalPBiCGStab:  Solving for p_rgh, Initial residual = 0.0197362, Final residual = 0.00977836, No Iterations 50
diagonalPBiCGStab:  Solving for p_rgh, Initial residual = 0.0101856, Final residual = 0.00632194, No Iterations 50
time step continuity errors : sum local = 0.000430619, global = -0.000346574, cumulative = -0.000879383
diagonalPBiCGStab:  Solving for p_rgh, Initial residual = 0.0173505, Final residual = 0.00579327, No Iterations 50
diagonalPBiCGStab:  Solving for p_rgh, Initial residual = 0.00923347, Final residual = 0.00383268, No Iterations 50
diagonalPBiCGStab:  Solving for p_rgh, Initial residual = 0.00458195, Final residual = 0.00470232, No Iterations 50
diagonalPBiCGStab:  Solving for p_rgh, Initial residual = 0.00464334, Final residual = 0.00182839, No Iterations 50
time step continuity errors : sum local = 0.000308202, global = -0.000284413, cumulative = -0.0011638
diagonalPBiCGStab:  Solving for p_rgh, Initial residual = 0.00435183, Final residual = 0.00283164, No Iterations 50
diagonalPBiCGStab:  Solving for p_rgh, Initial residual = 0.00329982, Final residual = 0.00152285, No Iterations 50
diagonalPBiCGStab:  Solving for p_rgh, Initial residual = 0.002271, Final residual = 0.00117629, No Iterations 50
diagonalPBiCGStab:  Solving for p_rgh, Initial residual = 0.00151883, Final residual = 0.00119198, No Iterations 50
time step continuity errors : sum local = 0.000296696, global = -0.000209797, cumulative = -0.00137359
PIMPLE: iteration 2
smoothSolver:  Solving for alpha.water, Initial residual = 0.149897, Final residual = 1.85792e-10, No Iterations 6
Phase-1 volume fraction = 0.00177344  Min(alpha.water) = -1.58542e-46  Max(alpha.water) = 1
MULES: Correcting alpha.water
MULES: Correcting alpha.water
Phase-1 volume fraction = 0.00177344  Min(alpha.water) = -5.0342e-09  Max(alpha.water) = 1
smoothSolver:  Solving for alpha.water, Initial residual = 0.0394253, Final residual = 2.67847e-09, No Iterations 5
Phase-1 volume fraction = 0.00193618  Min(alpha.water) = -6.0815e-51  Max(alpha.water) = 1
MULES: Correcting alpha.water
MULES: Correcting alpha.water
Phase-1 volume fraction = 0.00193618  Min(alpha.water) = -4.72317e-12  Max(alpha.water) = 1
smoothSolver:  Solving for alpha.water, Initial residual = 0.0361735, Final residual = 2.96172e-09, No Iterations 5
Phase-1 volume fraction = 0.00209892  Min(alpha.water) = -1.18749e-99  Max(alpha.water) = 1
MULES: Correcting alpha.water
MULES: Correcting alpha.water
Phase-1 volume fraction = 0.00209892  Min(alpha.water) = -3.08373e-20  Max(alpha.water) = 1
smoothSolver:  Solving for alpha.water, Initial residual = 0.0340435, Final residual = 2.82775e-09, No Iterations 5
Phase-1 volume fraction = 0.00226166  Min(alpha.water) = -1.1496e-99  Max(alpha.water) = 1
MULES: Correcting alpha.water
MULES: Correcting alpha.water
Phase-1 volume fraction = 0.00226166  Min(alpha.water) = -3.85382e-20  Max(alpha.water) = 1
smoothSolver:  Solving for alpha.water, Initial residual = 0.0320856, Final residual = 2.47517e-09, No Iterations 5
Phase-1 volume fraction = 0.0024244  Min(alpha.water) = -1.11275e-99  Max(alpha.water) = 1
MULES: Correcting alpha.water
MULES: Correcting alpha.water
Phase-1 volume fraction = 0.0024244  Min(alpha.water) = -1.44674e-20  Max(alpha.water) = 1
diagonalPBiCGStab:  Solving for p_rgh, Initial residual = 0.0413499, Final residual = 0.00239006, No Iterations 50
diagonalPBiCGStab:  Solving for p_rgh, Initial residual = 0.00717606, Final residual = 0.00178748, No Iterations 50
diagonalPBiCGStab:  Solving for p_rgh, Initial residual = 0.00311997, Final residual = 0.00129837, No Iterations 50
diagonalPBiCGStab:  Solving for p_rgh, Initial residual = 0.00258739, Final residual = 0.00107046, No Iterations 50
time step continuity errors : sum local = 0.000253737, global = 0.000205125, cumulative = -0.00116847
diagonalPBiCGStab:  Solving for p_rgh, Initial residual = 0.00606957, Final residual = 0.0018133, No Iterations 50
diagonalPBiCGStab:  Solving for p_rgh, Initial residual = 0.00332036, Final residual = 0.00155593, No Iterations 50
diagonalPBiCGStab:  Solving for p_rgh, Initial residual = 0.00273731, Final residual = 0.00117996, No Iterations 50
diagonalPBiCGStab:  Solving for p_rgh, Initial residual = 0.00203523, Final residual = 0.00174195, No Iterations 50
time step continuity errors : sum local = 0.000317742, global = 0.00018764, cumulative = -0.000980829
diagonalPBiCGStab:  Solving for p_rgh, Initial residual = 0.0050704, Final residual = 0.00123508, No Iterations 50
diagonalPBiCGStab:  Solving for p_rgh, Initial residual = 0.00254007, Final residual = 0.00164003, No Iterations 50
diagonalPBiCGStab:  Solving for p_rgh, Initial residual = 0.00258214, Final residual = 0.00147359, No Iterations 50
diagonalPBiCGStab:  Solving for p_rgh, Initial residual = 0.00233503, Final residual = 0.00146306, No Iterations 50
time step continuity errors : sum local = 0.000174291, global = 0.000152588, cumulative = -0.000828241
PIMPLE: iteration 3
smoothSolver:  Solving for alpha.water, Initial residual = 0.150704, Final residual = 9.22027e-09, No Iterations 5
Phase-1 volume fraction = 0.00177337  Min(alpha.water) = -1.48832e-33  Max(alpha.water) = 1
MULES: Correcting alpha.water
MULES: Correcting alpha.water
Phase-1 volume fraction = 0.00177337  Min(alpha.water) = -6.27891e-10  Max(alpha.water) = 1
smoothSolver:  Solving for alpha.water, Initial residual = 0.0378718, Final residual = 2.4056e-09, No Iterations 5
Phase-1 volume fraction = 0.00193605  Min(alpha.water) = -1.04669e-33  Max(alpha.water) = 1
MULES: Correcting alpha.water
MULES: Correcting alpha.water
Phase-1 volume fraction = 0.00193605  Min(alpha.water) = -6.78468e-12  Max(alpha.water) = 1
smoothSolver:  Solving for alpha.water, Initial residual = 0.035248, Final residual = 2.68622e-09, No Iterations 5
Phase-1 volume fraction = 0.00209872  Min(alpha.water) = -5.555e-34  Max(alpha.water) = 1
MULES: Correcting alpha.water
MULES: Correcting alpha.water
Phase-1 volume fraction = 0.00209872  Min(alpha.water) = -2.2245e-12  Max(alpha.water) = 1
smoothSolver:  Solving for alpha.water, Initial residual = 0.0330795, Final residual = 2.65335e-09, No Iterations 5
Phase-1 volume fraction = 0.00226139  Min(alpha.water) = -1.85508e-34  Max(alpha.water) = 1
MULES: Correcting alpha.water
MULES: Correcting alpha.water
Phase-1 volume fraction = 0.00226139  Min(alpha.water) = -7.17182e-14  Max(alpha.water) = 1
smoothSolver:  Solving for alpha.water, Initial residual = 0.0313198, Final residual = 2.3995e-09, No Iterations 5
Phase-1 volume fraction = 0.00242407  Min(alpha.water) = -1.6228e-34  Max(alpha.water) = 1
MULES: Correcting alpha.water
MULES: Correcting alpha.water
Phase-1 volume fraction = 0.00242407  Min(alpha.water) = -2.25778e-13  Max(alpha.water) = 1
diagonalPBiCGStab:  Solving for p_rgh, Initial residual = 0.0679798, Final residual = 0.00255531, No Iterations 50
diagonalPBiCGStab:  Solving for p_rgh, Initial residual = 0.0107477, Final residual = 0.0019557, No Iterations 50
diagonalPBiCGStab:  Solving for p_rgh, Initial residual = 0.00486034, Final residual = 0.00133167, No Iterations 50
diagonalPBiCGStab:  Solving for p_rgh, Initial residual = 0.00268211, Final residual = 0.00136722, No Iterations 50
time step continuity errors : sum local = 0.000127477, global = 9.1811e-05, cumulative = -0.00073643
diagonalPBiCGStab:  Solving for p_rgh, Initial residual = 0.00792288, Final residual = 0.00109226, No Iterations 50
diagonalPBiCGStab:  Solving for p_rgh, Initial residual = 0.00314326, Final residual = 0.00136175, No Iterations 50
diagonalPBiCGStab:  Solving for p_rgh, Initial residual = 0.00230695, Final residual = 0.00317326, No Iterations 50
diagonalPBiCGStab:  Solving for p_rgh, Initial residual = 0.00324291, Final residual = 0.00109121, No Iterations 50
time step continuity errors : sum local = 9.55983e-05, global = 8.30799e-05, cumulative = -0.00065335
diagonalPBiCGStab:  Solving for p_rgh, Initial residual = 0.00369273, Final residual = 0.00125296, No Iterations 50
diagonalPBiCGStab:  Solving for p_rgh, Initial residual = 0.00209399, Final residual = 0.00118326, No Iterations 50
diagonalPBiCGStab:  Solving for p_rgh, Initial residual = 0.00181874, Final residual = 0.00112852, No Iterations 50
diagonalPBiCGStab:  Solving for p_rgh, Initial residual = 0.00190531, Final residual = 0.00124278, No Iterations 50
time step continuity errors : sum local = 8.44912e-05, global = 6.67812e-05, cumulative = -0.000586569
PIMPLE: iteration 4
smoothSolver:  Solving for alpha.water, Initial residual = 0.147088, Final residual = 9.82083e-09, No Iterations 5
Phase-1 volume fraction = 0.00177313  Min(alpha.water) = -1.71687e-33  Max(alpha.water) = 1
MULES: Correcting alpha.water
MULES: Correcting alpha.water
Phase-1 volume fraction = 0.00177313  Min(alpha.water) = -2.50674e-10  Max(alpha.water) = 1
smoothSolver:  Solving for alpha.water, Initial residual = 0.0379459, Final residual = 2.54939e-09, No Iterations 5
Phase-1 volume fraction = 0.00193556  Min(alpha.water) = -1.52205e-33  Max(alpha.water) = 1
MULES: Correcting alpha.water
MULES: Correcting alpha.water
Phase-1 volume fraction = 0.00193556  Min(alpha.water) = -1.63344e-11  Max(alpha.water) = 1
smoothSolver:  Solving for alpha.water, Initial residual = 0.0353047, Final residual = 2.84497e-09, No Iterations 5
Phase-1 volume fraction = 0.002098  Min(alpha.water) = -1.346e-33  Max(alpha.water) = 1
MULES: Correcting alpha.water
MULES: Correcting alpha.water
Phase-1 volume fraction = 0.002098  Min(alpha.water) = -2.48288e-11  Max(alpha.water) = 1
smoothSolver:  Solving for alpha.water, Initial residual = 0.0330992, Final residual = 2.80428e-09, No Iterations 5
Phase-1 volume fraction = 0.00226043  Min(alpha.water) = -1.18314e-33  Max(alpha.water) = 1
MULES: Correcting alpha.water
MULES: Correcting alpha.water
Phase-1 volume fraction = 0.00226043  Min(alpha.water) = -3.0468e-11  Max(alpha.water) = 1
smoothSolver:  Solving for alpha.water, Initial residual = 0.0312207, Final residual = 2.53114e-09, No Iterations 5
Phase-1 volume fraction = 0.00242287  Min(alpha.water) = -1.02248e-33  Max(alpha.water) = 1
MULES: Correcting alpha.water
MULES: Correcting alpha.water
Phase-1 volume fraction = 0.00242287  Min(alpha.water) = -3.03679e-11  Max(alpha.water) = 1
diagonalPBiCGStab:  Solving for p_rgh, Initial residual = 0.117376, Final residual = 0.00140223, No Iterations 50
diagonalPBiCGStab:  Solving for p_rgh, Initial residual = 0.0112907, Final residual = 0.00070498, No Iterations 50
diagonalPBiCGStab:  Solving for p_rgh, Initial residual = 0.00339722, Final residual = 0.000664449, No Iterations 50
diagonalPBiCGStab:  Solving for p_rgh, Initial residual = 0.00186519, Final residual = 0.000443333, No Iterations 50
time step continuity errors : sum local = 2.60566e-05, global = 2.12747e-05, cumulative = -0.000565294
diagonalPBiCGStab:  Solving for p_rgh, Initial residual = 0.00758294, Final residual = 0.000379533, No Iterations 50
diagonalPBiCGStab:  Solving for p_rgh, Initial residual = 0.00289042, Final residual = 0.000256739, No Iterations 50
diagonalPBiCGStab:  Solving for p_rgh, Initial residual = 0.00092526, Final residual = 0.000192303, No Iterations 50
diagonalPBiCGStab:  Solving for p_rgh, Initial residual = 0.000693971, Final residual = 0.000218734, No Iterations 50
time step continuity errors : sum local = 1.24371e-05, global = 8.83672e-06, cumulative = -0.000556457
diagonalPBiCGStab:  Solving for p_rgh, Initial residual = 0.00259167, Final residual = 0.0001038, No Iterations 50
diagonalPBiCGStab:  Solving for p_rgh, Initial residual = 0.000751768, Final residual = 9.97017e-05, No Iterations 14
diagonalPBiCGStab:  Solving for p_rgh, Initial residual = 0.000252471, Final residual = 9.92247e-05, No Iterations 6
diagonalPBiCGStab:  Solving for p_rgh, Initial residual = 0.000155195, Final residual = 6.67562e-05, No Iterations 50
time step continuity errors : sum local = 3.75579e-06, global = 2.26007e-06, cumulative = -0.000554197
PIMPLE: iteration 5
smoothSolver:  Solving for alpha.water, Initial residual = 0.145901, Final residual = 2.0643e-10, No Iterations 6
Phase-1 volume fraction = 0.00177324  Min(alpha.water) = -1.55388e-33  Max(alpha.water) = 1
MULES: Correcting alpha.water
MULES: Correcting alpha.water
Phase-1 volume fraction = 0.00177324  Min(alpha.water) = -3.54843e-10  Max(alpha.water) = 1
smoothSolver:  Solving for alpha.water, Initial residual = 0.0384592, Final residual = 2.60863e-09, No Iterations 5
Phase-1 volume fraction = 0.00193577  Min(alpha.water) = -1.19575e-33  Max(alpha.water) = 1
MULES: Correcting alpha.water
MULES: Correcting alpha.water
Phase-1 volume fraction = 0.00193577  Min(alpha.water) = -2.133e-12  Max(alpha.water) = 1
smoothSolver:  Solving for alpha.water, Initial residual = 0.0357556, Final residual = 2.92826e-09, No Iterations 5
Phase-1 volume fraction = 0.00209831  Min(alpha.water) = -8.44398e-34  Max(alpha.water) = 1
MULES: Correcting alpha.water
MULES: Correcting alpha.water
Phase-1 volume fraction = 0.00209831  Min(alpha.water) = -3.88365e-12  Max(alpha.water) = 1
smoothSolver:  Solving for alpha.water, Initial residual = 0.0336696, Final residual = 2.91604e-09, No Iterations 5
Phase-1 volume fraction = 0.00226085  Min(alpha.water) = -4.7219e-34  Max(alpha.water) = 1
MULES: Correcting alpha.water
MULES: Correcting alpha.water
Phase-1 volume fraction = 0.00226085  Min(alpha.water) = -5.89011e-12  Max(alpha.water) = 1
smoothSolver:  Solving for alpha.water, Initial residual = 0.031808, Final residual = 2.65479e-09, No Iterations 5
Phase-1 volume fraction = 0.00242339  Min(alpha.water) = -1.8416e-34  Max(alpha.water) = 1
MULES: Correcting alpha.water
MULES: Correcting alpha.water
Phase-1 volume fraction = 0.00242339  Min(alpha.water) = -7.86177e-12  Max(alpha.water) = 1
diagonalPBiCGStab:  Solving for p_rgh, Initial residual = 0.100783, Final residual = 0.00100687, No Iterations 46
diagonalPBiCGStab:  Solving for p_rgh, Initial residual = 0.0128775, Final residual = 0.000616552, No Iterations 50
diagonalPBiCGStab:  Solving for p_rgh, Initial residual = 0.00346576, Final residual = 0.000462699, No Iterations 50
diagonalPBiCGStab:  Solving for p_rgh, Initial residual = 0.00156932, Final residual = 0.000354793, No Iterations 50
time step continuity errors : sum local = 2.02638e-05, global = 3.73809e-06, cumulative = -0.000550459
diagonalPBiCGStab:  Solving for p_rgh, Initial residual = 0.00702771, Final residual = 0.000557814, No Iterations 50
diagonalPBiCGStab:  Solving for p_rgh, Initial residual = 0.00266132, Final residual = 0.000254284, No Iterations 50
diagonalPBiCGStab:  Solving for p_rgh, Initial residual = 0.00104515, Final residual = 0.000189977, No Iterations 50
diagonalPBiCGStab:  Solving for p_rgh, Initial residual = 0.000568571, Final residual = 0.000133309, No Iterations 50
time step continuity errors : sum local = 7.66714e-06, global = -5.44967e-06, cumulative = -0.000555909
diagonalPBiCGStab:  Solving for p_rgh, Initial residual = 0.00267643, Final residual = 0.000169818, No Iterations 50
diagonalPBiCGStab:  Solving for p_rgh, Initial residual = 0.000886141, Final residual = 0.000184351, No Iterations 50
diagonalPBiCGStab:  Solving for p_rgh, Initial residual = 0.000415309, Final residual = 0.000202929, No Iterations 50
diagonalPBiCGStab:  Solving for p_rgh, Initial residual = 0.000385304, Final residual = 0.000161291, No Iterations 50
time step continuity errors : sum local = 9.53918e-06, global = -8.22058e-06, cumulative = -0.000564129
ExecutionTime = 235.56 s  ClockTime = 237 s

Courant Number mean: 0.141412 max: 7.58923
Interface Courant Number mean: 0.006138 max: 7.58923
Time = 0.0002

PIMPLE: iteration 1
cellVolumeWeight : detected 2 mesh regions

    zone:0 nCells:324716
    zone:1 nCells:8512
Marking patch-cells on zone 0
Marking patch-cells on zone 1

After patch analysis : nCells : 333228
    other  : 299527
    patch  : 29331
    overset: 4370

Creating mesh-to-mesh addressing for region0 and region0 regions using cellVolumeWeight
    Overlap volume: 4.29152e-11
cellVolumeWeight : detected 6 mesh regions after overset

Front : fraction:1 size:8723
Overset analysis : nCells : 333228
    calculated   : 324536
    interpolated : 4171
    hole         : 4521

Execution time for mesh.update() = 1.44 s
smoothSolver:  Solving for alpha.water, Initial residual = 0.0309957, Final residual = 2.41261e-09, No Iterations 5
Phase-1 volume fraction = 0.00258697  Min(alpha.water) = -1.7282e-34  Max(alpha.water) = 1
MULES: Correcting alpha.water
MULES: Correcting alpha.water
Phase-1 volume fraction = 0.00258697  Min(alpha.water) = -8.07214e-10  Max(alpha.water) = 1
smoothSolver:  Solving for alpha.water, Initial residual = 0.0293999, Final residual = 2.06761e-09, No Iterations 5
Phase-1 volume fraction = 0.00275042  Min(alpha.water) = -1.61956e-34  Max(alpha.water) = 1
MULES: Correcting alpha.water
MULES: Correcting alpha.water
Phase-1 volume fraction = 0.00275042  Min(alpha.water) = -2.55875e-10  Max(alpha.water) = 1
smoothSolver:  Solving for alpha.water, Initial residual = 0.0279047, Final residual = 1.78492e-09, No Iterations 5
Phase-1 volume fraction = 0.00291373  Min(alpha.water) = -1.51574e-34  Max(alpha.water) = 1
MULES: Correcting alpha.water
MULES: Correcting alpha.water
Phase-1 volume fraction = 0.00291373  Min(alpha.water) = -2.56999e-11  Max(alpha.water) = 1
smoothSolver:  Solving for alpha.water, Initial residual = 0.02682, Final residual = 1.5197e-09, No Iterations 5
Phase-1 volume fraction = 0.00307692  Min(alpha.water) = -1.41548e-34  Max(alpha.water) = 1
MULES: Correcting alpha.water
MULES: Correcting alpha.water
Phase-1 volume fraction = 0.00307692  Min(alpha.water) = -3.95679e-11  Max(alpha.water) = 1
smoothSolver:  Solving for alpha.water, Initial residual = 0.0259308, Final residual = 1.23961e-09, No Iterations 5
Phase-1 volume fraction = 0.00324001  Min(alpha.water) = -1.31667e-34  Max(alpha.water) = 1
MULES: Correcting alpha.water
MULES: Correcting alpha.water
Phase-1 volume fraction = 0.00324001  Min(alpha.water) = -6.15727e-11  Max(alpha.water) = 1
diagonalPBiCGStab:  Solving for p_rgh, Initial residual = 0.0973707, Final residual = 0.000917003, No Iterations 31
diagonalPBiCGStab:  Solving for p_rgh, Initial residual = 0.0106156, Final residual = 0.000484502, No Iterations 50
diagonalPBiCGStab:  Solving for p_rgh, Initial residual = 0.00311357, Final residual = 0.000251157, No Iterations 50
diagonalPBiCGStab:  Solving for p_rgh, Initial residual = 0.00115185, Final residual = 0.000170609, No Iterations 50
time step continuity errors : sum local = 1.04261e-05, global = -7.10093e-06, cumulative = -0.00057123
diagonalPBiCGStab:  Solving for p_rgh, Initial residual = 0.00913096, Final residual = 0.000324971, No Iterations 50
diagonalPBiCGStab:  Solving for p_rgh, Initial residual = 0.00217446, Final residual = 0.000263562, No Iterations 50
diagonalPBiCGStab:  Solving for p_rgh, Initial residual = 0.000785059, Final residual = 0.000577123, No Iterations 50
diagonalPBiCGStab:  Solving for p_rgh, Initial residual = 0.000890354, Final residual = 0.000172679, No Iterations 50
time step continuity errors : sum local = 1.11024e-05, global = -9.93534e-06, cumulative = -0.000581166
diagonalPBiCGStab:  Solving for p_rgh, Initial residual = 0.00345452, Final residual = 0.000172499, No Iterations 50
diagonalPBiCGStab:  Solving for p_rgh, Initial residual = 0.00081502, Final residual = 0.000372243, No Iterations 50
diagonalPBiCGStab:  Solving for p_rgh, Initial residual = 0.000754718, Final residual = 0.000179567, No Iterations 50
diagonalPBiCGStab:  Solving for p_rgh, Initial residual = 0.00047053, Final residual = 0.000135417, No Iterations 50
time step continuity errors : sum local = 9.43879e-06, global = -8.07149e-06, cumulative = -0.000589237
PIMPLE: iteration 2
smoothSolver:  Solving for alpha.water, Initial residual = 0.108075, Final residual = 7.74897e-09, No Iterations 5
Phase-1 volume fraction = 0.00258602  Min(alpha.water) = -1.72982e-34  Max(alpha.water) = 1
MULES: Correcting alpha.water
MULES: Correcting alpha.water
Phase-1 volume fraction = 0.00258602  Min(alpha.water) = -1.81192e-10  Max(alpha.water) = 1
smoothSolver:  Solving for alpha.water, Initial residual = 0.0270583, Final residual = 2.02892e-09, No Iterations 5
Phase-1 volume fraction = 0.00274865  Min(alpha.water) = -1.62405e-34  Max(alpha.water) = 1
MULES: Correcting alpha.water
MULES: Correcting alpha.water
Phase-1 volume fraction = 0.00274865  Min(alpha.water) = -9.40641e-12  Max(alpha.water) = 1
smoothSolver:  Solving for alpha.water, Initial residual = 0.025555, Final residual = 1.80179e-09, No Iterations 5
Phase-1 volume fraction = 0.00291128  Min(alpha.water) = -1.52402e-34  Max(alpha.water) = 1
MULES: Correcting alpha.water
MULES: Correcting alpha.water
Phase-1 volume fraction = 0.00291128  Min(alpha.water) = -1.20739e-11  Max(alpha.water) = 1
smoothSolver:  Solving for alpha.water, Initial residual = 0.02422, Final residual = 1.61805e-09, No Iterations 5
Phase-1 volume fraction = 0.00307391  Min(alpha.water) = -1.42981e-34  Max(alpha.water) = 1
MULES: Correcting alpha.water
MULES: Correcting alpha.water
Phase-1 volume fraction = 0.00307391  Min(alpha.water) = -1.43369e-11  Max(alpha.water) = 1
smoothSolver:  Solving for alpha.water, Initial residual = 0.0231319, Final residual = 1.43703e-09, No Iterations 5
Phase-1 volume fraction = 0.00323654  Min(alpha.water) = -1.34116e-34  Max(alpha.water) = 1
MULES: Correcting alpha.water
MULES: Correcting alpha.water
Phase-1 volume fraction = 0.00323654  Min(alpha.water) = -1.38891e-11  Max(alpha.water) = 1
diagonalPBiCGStab:  Solving for p_rgh, Initial residual = 0.097542, Final residual = 0.000972095, No Iterations 15
diagonalPBiCGStab:  Solving for p_rgh, Initial residual = 0.0114616, Final residual = 0.00513311, No Iterations 50
diagonalPBiCGStab:  Solving for p_rgh, Initial residual = 0.00795925, Final residual = 0.000598247, No Iterations 50
diagonalPBiCGStab:  Solving for p_rgh, Initial residual = 0.00263214, Final residual = 0.000238332, No Iterations 50
time step continuity errors : sum local = 1.72592e-05, global = -9.48638e-06, cumulative = -0.000598724
diagonalPBiCGStab:  Solving for p_rgh, Initial residual = 0.00568628, Final residual = 0.00023477, No Iterations 50
diagonalPBiCGStab:  Solving for p_rgh, Initial residual = 0.00136258, Final residual = 0.000224759, No Iterations 50
diagonalPBiCGStab:  Solving for p_rgh, Initial residual = 0.000726099, Final residual = 0.000128399, No Iterations 50
diagonalPBiCGStab:  Solving for p_rgh, Initial residual = 0.000344225, Final residual = 0.000152458, No Iterations 50
time step continuity errors : sum local = 1.13413e-05, global = -8.21745e-06, cumulative = -0.000606941
diagonalPBiCGStab:  Solving for p_rgh, Initial residual = 0.00202296, Final residual = 0.000102176, No Iterations 50
diagonalPBiCGStab:  Solving for p_rgh, Initial residual = 0.00045864, Final residual = 0.000149663, No Iterations 50
diagonalPBiCGStab:  Solving for p_rgh, Initial residual = 0.000309091, Final residual = 9.90525e-05, No Iterations 50
diagonalPBiCGStab:  Solving for p_rgh, Initial residual = 0.00020936, Final residual = 0.000107059, No Iterations 50
time step continuity errors : sum local = 8.17794e-06, global = -6.06062e-06, cumulative = -0.000613002
PIMPLE: iteration 3
smoothSolver:  Solving for alpha.water, Initial residual = 0.105731, Final residual = 8.4373e-09, No Iterations 5
Phase-1 volume fraction = 0.00258617  Min(alpha.water) = -1.14274e-14  Max(alpha.water) = 1
MULES: Correcting alpha.water
MULES: Correcting alpha.water
Phase-1 volume fraction = 0.00258617  Min(alpha.water) = -1.15678e-10  Max(alpha.water) = 1
smoothSolver:  Solving for alpha.water, Initial residual = 0.0278513, Final residual = 2.2232e-09, No Iterations 5
Phase-1 volume fraction = 0.00274896  Min(alpha.water) = -1.62093e-34  Max(alpha.water) = 1
MULES: Correcting alpha.water
MULES: Correcting alpha.water
Phase-1 volume fraction = 0.00274896  Min(alpha.water) = -3.21278e-11  Max(alpha.water) = 1
smoothSolver:  Solving for alpha.water, Initial residual = 0.02633, Final residual = 1.99539e-09, No Iterations 5
Phase-1 volume fraction = 0.00291174  Min(alpha.water) = -1.51952e-34  Max(alpha.water) = 1
MULES: Correcting alpha.water
MULES: Correcting alpha.water
Phase-1 volume fraction = 0.00291174  Min(alpha.water) = -5.50184e-11  Max(alpha.water) = 1
smoothSolver:  Solving for alpha.water, Initial residual = 0.0250335, Final residual = 1.81974e-09, No Iterations 5
Phase-1 volume fraction = 0.00307452  Min(alpha.water) = -1.42394e-34  Max(alpha.water) = 1
MULES: Correcting alpha.water
MULES: Correcting alpha.water
Phase-1 volume fraction = 0.00307452  Min(alpha.water) = -8.75685e-11  Max(alpha.water) = 1
smoothSolver:  Solving for alpha.water, Initial residual = 0.0239224, Final residual = 1.64964e-09, No Iterations 5
Phase-1 volume fraction = 0.00323731  Min(alpha.water) = -1.33358e-34  Max(alpha.water) = 1
MULES: Correcting alpha.water
MULES: Correcting alpha.water
Phase-1 volume fraction = 0.00323731  Min(alpha.water) = -1.36983e-10  Max(alpha.water) = 1
diagonalPBiCGStab:  Solving for p_rgh, Initial residual = 0.0648082, Final residual = 0.000645881, No Iterations 18
diagonalPBiCGStab:  Solving for p_rgh, Initial residual = 0.00648571, Final residual = 0.000319967, No Iterations 50
diagonalPBiCGStab:  Solving for p_rgh, Initial residual = 0.00161953, Final residual = 0.000211583, No Iterations 50
diagonalPBiCGStab:  Solving for p_rgh, Initial residual = 0.00082059, Final residual = 0.000286279, No Iterations 50
time step continuity errors : sum local = 2.24366e-05, global = -1.08821e-05, cumulative = -0.000623884
diagonalPBiCGStab:  Solving for p_rgh, Initial residual = 0.00546309, Final residual = 0.0001472, No Iterations 50
diagonalPBiCGStab:  Solving for p_rgh, Initial residual = 0.00139401, Final residual = 0.00013302, No Iterations 50
diagonalPBiCGStab:  Solving for p_rgh, Initial residual = 0.000487144, Final residual = 0.000343873, No Iterations 50
diagonalPBiCGStab:  Solving for p_rgh, Initial residual = 0.000595788, Final residual = 0.000112105, No Iterations 50
time step continuity errors : sum local = 9.24226e-06, global = -7.74833e-06, cumulative = -0.000631632
diagonalPBiCGStab:  Solving for p_rgh, Initial residual = 0.00198518, Final residual = 9.71176e-05, No Iterations 44
diagonalPBiCGStab:  Solving for p_rgh, Initial residual = 0.000520128, Final residual = 9.68963e-05, No Iterations 8
diagonalPBiCGStab:  Solving for p_rgh, Initial residual = 0.00019657, Final residual = 9.61782e-05, No Iterations 3
diagonalPBiCGStab:  Solving for p_rgh, Initial residual = 0.000124119, Final residual = 8.20614e-05, No Iterations 50
time step continuity errors : sum local = 6.79567e-06, global = -4.69651e-06, cumulative = -0.000636329
PIMPLE: iteration 4
smoothSolver:  Solving for alpha.water, Initial residual = 0.106424, Final residual = 8.27452e-09, No Iterations 5
Phase-1 volume fraction = 0.00258654  Min(alpha.water) = -1.72853e-34  Max(alpha.water) = 1
MULES: Correcting alpha.water
MULES: Correcting alpha.water
Phase-1 volume fraction = 0.00258654  Min(alpha.water) = -7.18615e-10  Max(alpha.water) = 1
smoothSolver:  Solving for alpha.water, Initial residual = 0.0279534, Final residual = 2.20561e-09, No Iterations 5
Phase-1 volume fraction = 0.00274969  Min(alpha.water) = -1.62156e-34  Max(alpha.water) = 1
MULES: Correcting alpha.water
MULES: Correcting alpha.water
Phase-1 volume fraction = 0.00274969  Min(alpha.water) = -6.54829e-11  Max(alpha.water) = 1
smoothSolver:  Solving for alpha.water, Initial residual = 0.0263654, Final residual = 1.97422e-09, No Iterations 5
Phase-1 volume fraction = 0.00291284  Min(alpha.water) = -1.52054e-34  Max(alpha.water) = 1
MULES: Correcting alpha.water
MULES: Correcting alpha.water
Phase-1 volume fraction = 0.00291284  Min(alpha.water) = -2.90526e-11  Max(alpha.water) = 1
smoothSolver:  Solving for alpha.water, Initial residual = 0.025044, Final residual = 1.78947e-09, No Iterations 5
Phase-1 volume fraction = 0.00307599  Min(alpha.water) = -1.42584e-34  Max(alpha.water) = 1
MULES: Correcting alpha.water
MULES: Correcting alpha.water
Phase-1 volume fraction = 0.00307599  Min(alpha.water) = -4.27235e-11  Max(alpha.water) = 1
smoothSolver:  Solving for alpha.water, Initial residual = 0.0238597, Final residual = 1.61053e-09, No Iterations 5
Phase-1 volume fraction = 0.00323913  Min(alpha.water) = -1.33705e-34  Max(alpha.water) = 1
MULES: Correcting alpha.water
MULES: Correcting alpha.water
Phase-1 volume fraction = 0.00323913  Min(alpha.water) = -6.58024e-11  Max(alpha.water) = 1
diagonalPBiCGStab:  Solving for p_rgh, Initial residual = 0.0757445, Final residual = 0.00236756, No Iterations 50
diagonalPBiCGStab:  Solving for p_rgh, Initial residual = 0.0105708, Final residual = 0.00170558, No Iterations 50
diagonalPBiCGStab:  Solving for p_rgh, Initial residual = 0.00377358, Final residual = 0.00224343, No Iterations 50
diagonalPBiCGStab:  Solving for p_rgh, Initial residual = 0.00313889, Final residual = 0.00123273, No Iterations 50
time step continuity errors : sum local = 0.000141059, global = -0.000127, cumulative = -0.000763329
diagonalPBiCGStab:  Solving for p_rgh, Initial residual = 0.00609863, Final residual = 0.00138672, No Iterations 50
diagonalPBiCGStab:  Solving for p_rgh, Initial residual = 0.00262995, Final residual = 0.00149032, No Iterations 50
diagonalPBiCGStab:  Solving for p_rgh, Initial residual = 0.00198183, Final residual = 0.000822207, No Iterations 50
diagonalPBiCGStab:  Solving for p_rgh, Initial residual = 0.00121752, Final residual = 0.00118852, No Iterations 50
time step continuity errors : sum local = 0.000173615, global = -9.22404e-05, cumulative = -0.000855569
diagonalPBiCGStab:  Solving for p_rgh, Initial residual = 0.00264228, Final residual = 0.000448349, No Iterations 50
diagonalPBiCGStab:  Solving for p_rgh, Initial residual = 0.00110061, Final residual = 0.000704003, No Iterations 50
diagonalPBiCGStab:  Solving for p_rgh, Initial residual = 0.000949766, Final residual = 0.000382067, No Iterations 50
diagonalPBiCGStab:  Solving for p_rgh, Initial residual = 0.000651096, Final residual = 0.000451946, No Iterations 50
time step continuity errors : sum local = 8.24118e-05, global = -5.92384e-05, cumulative = -0.000914808
PIMPLE: iteration 5
smoothSolver:  Solving for alpha.water, Initial residual = 0.107043, Final residual = 8.82318e-09, No Iterations 5
Phase-1 volume fraction = 0.00258624  Min(alpha.water) = -5.66933e-14  Max(alpha.water) = 1
MULES: Correcting alpha.water
MULES: Correcting alpha.water
Phase-1 volume fraction = 0.00258624  Min(alpha.water) = -1.36478e-09  Max(alpha.water) = 1
smoothSolver:  Solving for alpha.water, Initial residual = 0.0279722, Final residual = 2.32996e-09, No Iterations 5
Phase-1 volume fraction = 0.0027491  Min(alpha.water) = -4.82918e-14  Max(alpha.water) = 1
MULES: Correcting alpha.water
MULES: Correcting alpha.water
Phase-1 volume fraction = 0.0027491  Min(alpha.water) = -5.42292e-14  Max(alpha.water) = 1
smoothSolver:  Solving for alpha.water, Initial residual = 0.0264578, Final residual = 2.09083e-09, No Iterations 5
Phase-1 volume fraction = 0.00291195  Min(alpha.water) = -3.51062e-14  Max(alpha.water) = 1
MULES: Correcting alpha.water
MULES: Correcting alpha.water
Phase-1 volume fraction = 0.00291195  Min(alpha.water) = -3.50882e-14  Max(alpha.water) = 1
smoothSolver:  Solving for alpha.water, Initial residual = 0.0250391, Final residual = 1.89893e-09, No Iterations 5
Phase-1 volume fraction = 0.00307481  Min(alpha.water) = -1.46308e-14  Max(alpha.water) = 1
MULES: Correcting alpha.water
MULES: Correcting alpha.water
Phase-1 volume fraction = 0.00307481  Min(alpha.water) = -1.46233e-14  Max(alpha.water) = 1
smoothSolver:  Solving for alpha.water, Initial residual = 0.0239799, Final residual = 1.71431e-09, No Iterations 5
Phase-1 volume fraction = 0.00323766  Min(alpha.water) = -7.30449e-15  Max(alpha.water) = 1
MULES: Correcting alpha.water
MULES: Correcting alpha.water
Phase-1 volume fraction = 0.00323766  Min(alpha.water) = -7.302e-15  Max(alpha.water) = 1
diagonalPBiCGStab:  Solving for p_rgh, Initial residual = 0.0383391, Final residual = 0.00111527, No Iterations 50
diagonalPBiCGStab:  Solving for p_rgh, Initial residual = 0.00519323, Final residual = 0.000859377, No Iterations 50
diagonalPBiCGStab:  Solving for p_rgh, Initial residual = 0.00210271, Final residual = 0.00103117, No Iterations 50
diagonalPBiCGStab:  Solving for p_rgh, Initial residual = 0.0017581, Final residual = 0.000752409, No Iterations 50
time step continuity errors : sum local = 0.000127198, global = 0.000110323, cumulative = -0.000804485
diagonalPBiCGStab:  Solving for p_rgh, Initial residual = 0.00485029, Final residual = 0.00113402, No Iterations 50
diagonalPBiCGStab:  Solving for p_rgh, Initial residual = 0.0022708, Final residual = 0.00132736, No Iterations 50
diagonalPBiCGStab:  Solving for p_rgh, Initial residual = 0.00224702, Final residual = 0.000798646, No Iterations 50
diagonalPBiCGStab:  Solving for p_rgh, Initial residual = 0.00152633, Final residual = 0.00130913, No Iterations 50
time step continuity errors : sum local = 0.000180747, global = 0.000100478, cumulative = -0.000704006
diagonalPBiCGStab:  Solving for p_rgh, Initial residual = 0.00376247, Final residual = 0.000830503, No Iterations 50
diagonalPBiCGStab:  Solving for p_rgh, Initial residual = 0.00184885, Final residual = 0.00126336, No Iterations 50
diagonalPBiCGStab:  Solving for p_rgh, Initial residual = 0.00186437, Final residual = 0.000911789, No Iterations 50
diagonalPBiCGStab:  Solving for p_rgh, Initial residual = 0.00145752, Final residual = 0.00107866, No Iterations 50
time step continuity errors : sum local = 0.000111716, global = 7.97279e-05, cumulative = -0.000624278
ExecutionTime = 311.73 s  ClockTime = 313 s

Courant Number mean: 0.152635 max: 5.62067
Interface Courant Number mean: 0.00664887 max: 5.62067
Time = 0.00025

PIMPLE: iteration 1
cellVolumeWeight : detected 2 mesh regions

    zone:0 nCells:324716
    zone:1 nCells:8512
Marking patch-cells on zone 0
Marking patch-cells on zone 1

After patch analysis : nCells : 333228
    other  : 299527
    patch  : 29331
    overset: 4370

Creating mesh-to-mesh addressing for region0 and region0 regions using cellVolumeWeight
    Overlap volume: 4.44121e-11
cellVolumeWeight : detected 6 mesh regions after overset

Front : fraction:1 size:8765
Overset analysis : nCells : 333228
    calculated   : 324494
    interpolated : 4192
    hole         : 4542

Execution time for mesh.update() = 1.44 s
smoothSolver:  Solving for alpha.water, Initial residual = 0.0245882, Final residual = 1.35799e-09, No Iterations 5
Phase-1 volume fraction = 0.00340127  Min(alpha.water) = -5.81511e-38  Max(alpha.water) = 1
MULES: Correcting alpha.water
MULES: Correcting alpha.water
Phase-1 volume fraction = 0.00340127  Min(alpha.water) = -2.42764e-12  Max(alpha.water) = 1
smoothSolver:  Solving for alpha.water, Initial residual = 0.0232018, Final residual = 1.12447e-09, No Iterations 5
Phase-1 volume fraction = 0.00356466  Min(alpha.water) = -5.3667e-38  Max(alpha.water) = 1
MULES: Correcting alpha.water
MULES: Correcting alpha.water
Phase-1 volume fraction = 0.00356466  Min(alpha.water) = -3.31422e-12  Max(alpha.water) = 1
smoothSolver:  Solving for alpha.water, Initial residual = 0.0218114, Final residual = 8.94615e-10, No Iterations 5
Phase-1 volume fraction = 0.00372783  Min(alpha.water) = -4.87374e-38  Max(alpha.water) = 1
MULES: Correcting alpha.water
MULES: Correcting alpha.water
Phase-1 volume fraction = 0.00372783  Min(alpha.water) = -4.46568e-12  Max(alpha.water) = 1
smoothSolver:  Solving for alpha.water, Initial residual = 0.0206219, Final residual = 6.76887e-10, No Iterations 5
Phase-1 volume fraction = 0.00389084  Min(alpha.water) = -4.2616e-38  Max(alpha.water) = 1
MULES: Correcting alpha.water
MULES: Correcting alpha.water
Phase-1 volume fraction = 0.00389084  Min(alpha.water) = -5.64062e-12  Max(alpha.water) = 1
smoothSolver:  Solving for alpha.water, Initial residual = 0.0196805, Final residual = 4.92502e-10, No Iterations 5
Phase-1 volume fraction = 0.00405372  Min(alpha.water) = -3.43521e-38  Max(alpha.water) = 1
MULES: Correcting alpha.water
MULES: Correcting alpha.water
Phase-1 volume fraction = 0.00405372  Min(alpha.water) = -6.50497e-12  Max(alpha.water) = 1
diagonalPBiCGStab:  Solving for p_rgh, Initial residual = 0.0640313, Final residual = 0.00139481, No Iterations 50
diagonalPBiCGStab:  Solving for p_rgh, Initial residual = 0.00666851, Final residual = 0.00118949, No Iterations 50
diagonalPBiCGStab:  Solving for p_rgh, Initial residual = 0.00273781, Final residual = 0.000977492, No Iterations 50
diagonalPBiCGStab:  Solving for p_rgh, Initial residual = 0.00181674, Final residual = 0.000993633, No Iterations 50
time step continuity errors : sum local = 8.68562e-05, global = 6.05291e-05, cumulative = -0.000563749
diagonalPBiCGStab:  Solving for p_rgh, Initial residual = 0.00825681, Final residual = 0.000859924, No Iterations 50
diagonalPBiCGStab:  Solving for p_rgh, Initial residual = 0.00255375, Final residual = 0.00117601, No Iterations 50
diagonalPBiCGStab:  Solving for p_rgh, Initial residual = 0.0019276, Final residual = 0.000941688, No Iterations 50
[...]
diagonalPBiCGStab:  Solving for p_rgh, Initial residual = 0.00244016, Final residual = 9.9795e-05, No Iterations 49
diagonalPBiCGStab:  Solving for p_rgh, Initial residual = 0.000669061, Final residual = 9.29092e-05, No Iterations 36
diagonalPBiCGStab:  Solving for p_rgh, Initial residual = 0.000264302, Final residual = 9.74867e-05, No Iterations 3
time step continuity errors : sum local = 0.000150765, global = -3.84154e-06, cumulative = 0.0192276
diagonalPBiCGStab:  Solving for p_rgh, Initial residual = 0.00217527, Final residual = 9.91393e-05, No Iterations 37
diagonalPBiCGStab:  Solving for p_rgh, Initial residual = 0.000417253, Final residual = 9.90436e-05, No Iterations 7
diagonalPBiCGStab:  Solving for p_rgh, Initial residual = 0.000158746, Final residual = 9.52282e-05, No Iterations 3
diagonalPBiCGStab:  Solving for p_rgh, Initial residual = 0.000112996, Final residual = 9.4927e-05, No Iterations 3
time step continuity errors : sum local = 0.000145781, global = -8.33593e-06, cumulative = 0.0192192
diagonalPBiCGStab:  Solving for p_rgh, Initial residual = 0.000553061, Final residual = 9.89815e-05, No Iterations 29
diagonalPBiCGStab:  Solving for p_rgh, Initial residual = 0.000182203, Final residual = 9.23433e-05, No Iterations 3
diagonalPBiCGStab:  Solving for p_rgh, Initial residual = 0.00010501, Final residual = 8.467e-05, No Iterations 3
diagonalPBiCGStab:  Solving for p_rgh, Initial residual = 9.06941e-05, Final residual = 3.8548e-05, No Iterations 50
time step continuity errors : sum local = 5.9624e-05, global = -1.78632e-07, cumulative = 0.0192191
ExecutionTime = 13865.5 s  ClockTime = 13904 s

Courant Number mean: 0.578208 max: 7.78982
Interface Courant Number mean: 0.102065 max: 7.78982
Time = 0.01

PIMPLE: iteration 1
cellVolumeWeight : detected 2 mesh regions

    zone:0 nCells:324716
    zone:1 nCells:8512
Marking patch-cells on zone 0
Marking patch-cells on zone 1

After patch analysis : nCells : 333228
    other  : 299527
    patch  : 29331
    overset: 4370

Creating mesh-to-mesh addressing for region0 and region0 regions using cellVolumeWeight
    Overlap volume: 6.71407e-10
cellVolumeWeight : detected 6 mesh regions after overset

Front : fraction:1 size:8074
Overset analysis : nCells : 333228
    calculated   : 317135
    interpolated : 5896
    hole         : 10197

Execution time for mesh.update() = 4.92 s
smoothSolver:  Solving for alpha.water, Initial residual = 0.0042036, Final residual = 1.40209e-09, No Iterations 4
Phase-1 volume fraction = 0.135153  Min(alpha.water) = -5.86093e-12  Max(alpha.water) = 1
MULES: Correcting alpha.water
MULES: Correcting alpha.water
Phase-1 volume fraction = 0.135153  Min(alpha.water) = -4.52002e-05  Max(alpha.water) = 1
smoothSolver:  Solving for alpha.water, Initial residual = 0.00407951, Final residual = 1.40649e-09, No Iterations 4
Phase-1 volume fraction = 0.135306  Min(alpha.water) = -5.58229e-12  Max(alpha.water) = 1
MULES: Correcting alpha.water
MULES: Correcting alpha.water
Phase-1 volume fraction = 0.135305  Min(alpha.water) = -4.60382e-05  Max(alpha.water) = 1
smoothSolver:  Solving for alpha.water, Initial residual = 0.0039982, Final residual = 1.40439e-09, No Iterations 4
Phase-1 volume fraction = 0.135457  Min(alpha.water) = -5.31688e-12  Max(alpha.water) = 1
MULES: Correcting alpha.water
MULES: Correcting alpha.water
Phase-1 volume fraction = 0.135457  Min(alpha.water) = -4.68247e-05  Max(alpha.water) = 1
smoothSolver:  Solving for alpha.water, Initial residual = 0.00392589, Final residual = 1.39871e-09, No Iterations 4
Phase-1 volume fraction = 0.135607  Min(alpha.water) = -5.0641e-12  Max(alpha.water) = 1
MULES: Correcting alpha.water
MULES: Correcting alpha.water
Phase-1 volume fraction = 0.135607  Min(alpha.water) = -4.74588e-05  Max(alpha.water) = 1
smoothSolver:  Solving for alpha.water, Initial residual = 0.00387874, Final residual = 1.39023e-09, No Iterations 4
Phase-1 volume fraction = 0.135757  Min(alpha.water) = -4.82334e-12  Max(alpha.water) = 1
MULES: Correcting alpha.water
MULES: Correcting alpha.water
Phase-1 volume fraction = 0.135756  Min(alpha.water) = -4.79345e-05  Max(alpha.water) = 1
diagonalPBiCGStab:  Solving for p_rgh, Initial residual = 0.0297949, Final residual = 0.00028902, No Iterations 15
diagonalPBiCGStab:  Solving for p_rgh, Initial residual = 0.00159981, Final residual = 9.78601e-05, No Iterations 47
diagonalPBiCGStab:  Solving for p_rgh, Initial residual = 0.000428772, Final residual = 9.9758e-05, No Iterations 5
diagonalPBiCGStab:  Solving for p_rgh, Initial residual = 0.000163706, Final residual = 9.27277e-05, No Iterations 3
time step continuity errors : sum local = 0.000157089, global = -0.000104331, cumulative = 0.0191147
diagonalPBiCGStab:  Solving for p_rgh, Initial residual = 0.0017571, Final residual = 9.92152e-05, No Iterations 34
diagonalPBiCGStab:  Solving for p_rgh, Initial residual = 0.000332491, Final residual = 9.99082e-05, No Iterations 46
diagonalPBiCGStab:  Solving for p_rgh, Initial residual = 0.000185104, Final residual = 9.78973e-05, No Iterations 16
diagonalPBiCGStab:  Solving for p_rgh, Initial residual = 0.000131368, Final residual = 8.95345e-05, No Iterations 3
time step continuity errors : sum local = 0.000150784, global = -9.34015e-05, cumulative = 0.0190213
diagonalPBiCGStab:  Solving for p_rgh, Initial residual = 0.00055808, Final residual = 9.91319e-05, No Iterations 13
diagonalPBiCGStab:  Solving for p_rgh, Initial residual = 0.000151321, Final residual = 8.78067e-05, No Iterations 3
diagonalPBiCGStab:  Solving for p_rgh, Initial residual = 9.67795e-05, Final residual = 8.13835e-05, No Iterations 3
diagonalPBiCGStab:  Solving for p_rgh, Initial residual = 8.58003e-05, Final residual = 5.71514e-05, No Iterations 50
time step continuity errors : sum local = 9.6412e-05, global = -8.04128e-05, cumulative = 0.0189409
PIMPLE: iteration 2
smoothSolver:  Solving for alpha.water, Initial residual = 0.0100597, Final residual = 2.37031e-09, No Iterations 4
Phase-1 volume fraction = 0.135144  Min(alpha.water) = -4.18162e-13  Max(alpha.water) = 1
MULES: Correcting alpha.water
MULES: Correcting alpha.water
Phase-1 volume fraction = 0.135144  Min(alpha.water) = -4.26773e-05  Max(alpha.water) = 1
smoothSolver:  Solving for alpha.water, Initial residual = 0.00347553, Final residual = 1.36931e-09, No Iterations 4
Phase-1 volume fraction = 0.135288  Min(alpha.water) = -4.18162e-13  Max(alpha.water) = 1
MULES: Correcting alpha.water
MULES: Correcting alpha.water
Phase-1 volume fraction = 0.135287  Min(alpha.water) = -4.22208e-05  Max(alpha.water) = 1
smoothSolver:  Solving for alpha.water, Initial residual = 0.00347449, Final residual = 1.38185e-09, No Iterations 4
Phase-1 volume fraction = 0.135431  Min(alpha.water) = -4.18162e-13  Max(alpha.water) = 1
MULES: Correcting alpha.water
MULES: Correcting alpha.water
Phase-1 volume fraction = 0.135431  Min(alpha.water) = -4.25702e-05  Max(alpha.water) = 1
smoothSolver:  Solving for alpha.water, Initial residual = 0.00348372, Final residual = 1.38958e-09, No Iterations 4
Phase-1 volume fraction = 0.135574  Min(alpha.water) = -4.18162e-13  Max(alpha.water) = 1
MULES: Correcting alpha.water
MULES: Correcting alpha.water
Phase-1 volume fraction = 0.135574  Min(alpha.water) = -4.29914e-05  Max(alpha.water) = 1
smoothSolver:  Solving for alpha.water, Initial residual = 0.003496, Final residual = 1.39178e-09, No Iterations 4
Phase-1 volume fraction = 0.135717  Min(alpha.water) = -4.18162e-13  Max(alpha.water) = 1
MULES: Correcting alpha.water
MULES: Correcting alpha.water
Phase-1 volume fraction = 0.135717  Min(alpha.water) = -4.33591e-05  Max(alpha.water) = 1
diagonalPBiCGStab:  Solving for p_rgh, Initial residual = 0.0395291, Final residual = 0.000391774, No Iterations 13
diagonalPBiCGStab:  Solving for p_rgh, Initial residual = 0.00209472, Final residual = 0.000157525, No Iterations 50
diagonalPBiCGStab:  Solving for p_rgh, Initial residual = 0.000692719, Final residual = 0.000120548, No Iterations 50
diagonalPBiCGStab:  Solving for p_rgh, Initial residual = 0.000303576, Final residual = 9.97331e-05, No Iterations 43
time step continuity errors : sum local = 0.000149276, global = 8.3776e-05, cumulative = 0.0190247
diagonalPBiCGStab:  Solving for p_rgh, Initial residual = 0.00193733, Final residual = 9.94635e-05, No Iterations 46
diagonalPBiCGStab:  Solving for p_rgh, Initial residual = 0.000368887, Final residual = 9.91949e-05, No Iterations 23
diagonalPBiCGStab:  Solving for p_rgh, Initial residual = 0.000159722, Final residual = 9.92165e-05, No Iterations 3
diagonalPBiCGStab:  Solving for p_rgh, Initial residual = 0.000113272, Final residual = 9.71773e-05, No Iterations 3
time step continuity errors : sum local = 0.000145137, global = 8.0866e-05, cumulative = 0.0191056
diagonalPBiCGStab:  Solving for p_rgh, Initial residual = 0.000470592, Final residual = 9.51487e-05, No Iterations 40
diagonalPBiCGStab:  Solving for p_rgh, Initial residual = 0.000179987, Final residual = 9.29417e-05, No Iterations 3
diagonalPBiCGStab:  Solving for p_rgh, Initial residual = 0.000104057, Final residual = 9.28647e-05, No Iterations 3
diagonalPBiCGStab:  Solving for p_rgh, Initial residual = 0.0001002, Final residual = 6.18086e-05, No Iterations 50
time step continuity errors : sum local = 9.31848e-05, global = 5.72935e-05, cumulative = 0.0191628
PIMPLE: iteration 3
smoothSolver:  Solving for alpha.water, Initial residual = 0.00824115, Final residual = 2.40854e-09, No Iterations 4
Phase-1 volume fraction = 0.135149  Min(alpha.water) = -5.85024e-12  Max(alpha.water) = 1
MULES: Correcting alpha.water
MULES: Correcting alpha.water
Phase-1 volume fraction = 0.135148  Min(alpha.water) = -4.32941e-05  Max(alpha.water) = 1
smoothSolver:  Solving for alpha.water, Initial residual = 0.00407391, Final residual = 1.44753e-09, No Iterations 4
Phase-1 volume fraction = 0.135297  Min(alpha.water) = -5.56192e-12  Max(alpha.water) = 1
MULES: Correcting alpha.water
MULES: Correcting alpha.water
Phase-1 volume fraction = 0.135296  Min(alpha.water) = -4.31873e-05  Max(alpha.water) = 1
smoothSolver:  Solving for alpha.water, Initial residual = 0.00399015, Final residual = 1.4531e-09, No Iterations 4
Phase-1 volume fraction = 0.135445  Min(alpha.water) = -5.28782e-12  Max(alpha.water) = 1
MULES: Correcting alpha.water
MULES: Correcting alpha.water
Phase-1 volume fraction = 0.135444  Min(alpha.water) = -4.39941e-05  Max(alpha.water) = 1
smoothSolver:  Solving for alpha.water, Initial residual = 0.00393471, Final residual = 1.45543e-09, No Iterations 4
Phase-1 volume fraction = 0.135593  Min(alpha.water) = -5.02723e-12  Max(alpha.water) = 1
MULES: Correcting alpha.water
MULES: Correcting alpha.water
Phase-1 volume fraction = 0.135591  Min(alpha.water) = -4.47569e-05  Max(alpha.water) = 1
smoothSolver:  Solving for alpha.water, Initial residual = 0.00390658, Final residual = 1.45769e-09, No Iterations 4
Phase-1 volume fraction = 0.13574  Min(alpha.water) = -4.77948e-12  Max(alpha.water) = 1
MULES: Correcting alpha.water
MULES: Correcting alpha.water
Phase-1 volume fraction = 0.135739  Min(alpha.water) = -4.52461e-05  Max(alpha.water) = 1
diagonalPBiCGStab:  Solving for p_rgh, Initial residual = 0.033643, Final residual = 0.000325348, No Iterations 15
diagonalPBiCGStab:  Solving for p_rgh, Initial residual = 0.0018251, Final residual = 0.00010611, No Iterations 50
diagonalPBiCGStab:  Solving for p_rgh, Initial residual = 0.000489443, Final residual = 9.96715e-05, No Iterations 38
diagonalPBiCGStab:  Solving for p_rgh, Initial residual = 0.000214634, Final residual = 9.91436e-05, No Iterations 14
time step continuity errors : sum local = 0.000161459, global = -4.14499e-05, cumulative = 0.0191214
diagonalPBiCGStab:  Solving for p_rgh, Initial residual = 0.00196603, Final residual = 9.92079e-05, No Iterations 29
diagonalPBiCGStab:  Solving for p_rgh, Initial residual = 0.000366732, Final residual = 9.9653e-05, No Iterations 6
diagonalPBiCGStab:  Solving for p_rgh, Initial residual = 0.000149348, Final residual = 9.31407e-05, No Iterations 3
diagonalPBiCGStab:  Solving for p_rgh, Initial residual = 0.000108592, Final residual = 9.21013e-05, No Iterations 3
time step continuity errors : sum local = 0.000149218, global = -4.94614e-05, cumulative = 0.0190719
diagonalPBiCGStab:  Solving for p_rgh, Initial residual = 0.000556406, Final residual = 9.90357e-05, No Iterations 35
diagonalPBiCGStab:  Solving for p_rgh, Initial residual = 0.000186748, Final residual = 9.16842e-05, No Iterations 3
diagonalPBiCGStab:  Solving for p_rgh, Initial residual = 0.000104454, Final residual = 7.81291e-05, No Iterations 3
diagonalPBiCGStab:  Solving for p_rgh, Initial residual = 8.4348e-05, Final residual = 5.16615e-05, No Iterations 50
time step continuity errors : sum local = 8.38105e-05, global = -3.578e-05, cumulative = 0.0190362
PIMPLE: iteration 4
smoothSolver:  Solving for alpha.water, Initial residual = 0.00962013, Final residual = 2.26669e-09, No Iterations 4
Phase-1 volume fraction = 0.135146  Min(alpha.water) = -5.86193e-12  Max(alpha.water) = 1
MULES: Correcting alpha.water
MULES: Correcting alpha.water
Phase-1 volume fraction = 0.135145  Min(alpha.water) = -4.32116e-05  Max(alpha.water) = 1
smoothSolver:  Solving for alpha.water, Initial residual = 0.00376536, Final residual = 1.40743e-09, No Iterations 4
Phase-1 volume fraction = 0.135291  Min(alpha.water) = -5.58419e-12  Max(alpha.water) = 1
MULES: Correcting alpha.water
MULES: Correcting alpha.water
Phase-1 volume fraction = 0.13529  Min(alpha.water) = -4.25983e-05  Max(alpha.water) = 1
smoothSolver:  Solving for alpha.water, Initial residual = 0.00373154, Final residual = 1.40818e-09, No Iterations 4
Phase-1 volume fraction = 0.135435  Min(alpha.water) = -5.3196e-12  Max(alpha.water) = 1
MULES: Correcting alpha.water
MULES: Correcting alpha.water
Phase-1 volume fraction = 0.135435  Min(alpha.water) = -4.31694e-05  Max(alpha.water) = 1
smoothSolver:  Solving for alpha.water, Initial residual = 0.00370956, Final residual = 1.40789e-09, No Iterations 4
Phase-1 volume fraction = 0.13558  Min(alpha.water) = -5.06756e-12  Max(alpha.water) = 1
MULES: Correcting alpha.water
MULES: Correcting alpha.water
Phase-1 volume fraction = 0.13558  Min(alpha.water) = -4.37237e-05  Max(alpha.water) = 1
smoothSolver:  Solving for alpha.water, Initial residual = 0.00370138, Final residual = 1.40632e-09, No Iterations 4
Phase-1 volume fraction = 0.135725  Min(alpha.water) = -4.82745e-12  Max(alpha.water) = 1.07247
MULES: Correcting alpha.water
MULES: Correcting alpha.water
Phase-1 volume fraction = 0.135724  Min(alpha.water) = -4.40914e-05  Max(alpha.water) = 1
diagonalPBiCGStab:  Solving for p_rgh, Initial residual = 0.0417013, Final residual = 0.000406871, No Iterations 13
diagonalPBiCGStab:  Solving for p_rgh, Initial residual = 0.00251175, Final residual = 9.34863e-05, No Iterations 47
diagonalPBiCGStab:  Solving for p_rgh, Initial residual = 0.000650655, Final residual = 9.96142e-05, No Iterations 7
diagonalPBiCGStab:  Solving for p_rgh, Initial residual = 0.000216048, Final residual = 9.66674e-05, No Iterations 3
time step continuity errors : sum local = 0.000148984, global = 3.18465e-05, cumulative = 0.019068
diagonalPBiCGStab:  Solving for p_rgh, Initial residual = 0.00207765, Final residual = 9.93694e-05, No Iterations 32
diagonalPBiCGStab:  Solving for p_rgh, Initial residual = 0.000374737, Final residual = 9.94236e-05, No Iterations 6
diagonalPBiCGStab:  Solving for p_rgh, Initial residual = 0.000145969, Final residual = 9.21677e-05, No Iterations 3
diagonalPBiCGStab:  Solving for p_rgh, Initial residual = 0.0001082, Final residual = 9.51357e-05, No Iterations 3
time step continuity errors : sum local = 0.000147848, global = 3.45289e-05, cumulative = 0.0191025
diagonalPBiCGStab:  Solving for p_rgh, Initial residual = 0.000527521, Final residual = 9.79312e-05, No Iterations 24
diagonalPBiCGStab:  Solving for p_rgh, Initial residual = 0.000170526, Final residual = 9.25383e-05, No Iterations 3
diagonalPBiCGStab:  Solving for p_rgh, Initial residual = 0.000104279, Final residual = 9.19043e-05, No Iterations 3
diagonalPBiCGStab:  Solving for p_rgh, Initial residual = 9.89789e-05, Final residual = 4.08313e-05, No Iterations 50
time step continuity errors : sum local = 6.38e-05, global = 3.27492e-05, cumulative = 0.0191353
PIMPLE: iteration 5
smoothSolver:  Solving for alpha.water, Initial residual = 0.00980793, Final residual = 2.47023e-09, No Iterations 4
Phase-1 volume fraction = 0.13515  Min(alpha.water) = -5.85691e-12  Max(alpha.water) = 1
MULES: Correcting alpha.water
MULES: Correcting alpha.water
Phase-1 volume fraction = 0.135149  Min(alpha.water) = -4.28946e-05  Max(alpha.water) = 1
smoothSolver:  Solving for alpha.water, Initial residual = 0.00394362, Final residual = 1.40549e-09, No Iterations 4
Phase-1 volume fraction = 0.135299  Min(alpha.water) = -5.57463e-12  Max(alpha.water) = 1
MULES: Correcting alpha.water
MULES: Correcting alpha.water
Phase-1 volume fraction = 0.135298  Min(alpha.water) = -4.23974e-05  Max(alpha.water) = 1
smoothSolver:  Solving for alpha.water, Initial residual = 0.00388831, Final residual = 1.41128e-09, No Iterations 4
Phase-1 volume fraction = 0.135448  Min(alpha.water) = -5.30595e-12  Max(alpha.water) = 1
MULES: Correcting alpha.water
MULES: Correcting alpha.water
Phase-1 volume fraction = 0.135447  Min(alpha.water) = -4.31434e-05  Max(alpha.water) = 1
smoothSolver:  Solving for alpha.water, Initial residual = 0.00386108, Final residual = 1.41635e-09, No Iterations 4
Phase-1 volume fraction = 0.135597  Min(alpha.water) = -5.05022e-12  Max(alpha.water) = 1
MULES: Correcting alpha.water
MULES: Correcting alpha.water
Phase-1 volume fraction = 0.135595  Min(alpha.water) = -4.37442e-05  Max(alpha.water) = 1
smoothSolver:  Solving for alpha.water, Initial residual = 0.00385042, Final residual = 1.41835e-09, No Iterations 4
Phase-1 volume fraction = 0.135745  Min(alpha.water) = -4.80682e-12  Max(alpha.water) = 1
MULES: Correcting alpha.water
MULES: Correcting alpha.water
Phase-1 volume fraction = 0.135744  Min(alpha.water) = -4.42471e-05  Max(alpha.water) = 1
diagonalPBiCGStab:  Solving for p_rgh, Initial residual = 0.0426626, Final residual = 0.000407809, No Iterations 15
diagonalPBiCGStab:  Solving for p_rgh, Initial residual = 0.00215425, Final residual = 9.17857e-05, No Iterations 42
diagonalPBiCGStab:  Solving for p_rgh, Initial residual = 0.000499414, Final residual = 9.99831e-05, No Iterations 5
diagonalPBiCGStab:  Solving for p_rgh, Initial residual = 0.000180204, Final residual = 9.46202e-05, No Iterations 3
time step continuity errors : sum local = 0.000149429, global = 6.2695e-05, cumulative = 0.019198
diagonalPBiCGStab:  Solving for p_rgh, Initial residual = 0.00204657, Final residual = 9.98929e-05, No Iterations 38
diagonalPBiCGStab:  Solving for p_rgh, Initial residual = 0.000375075, Final residual = 9.75639e-05, No Iterations 6
diagonalPBiCGStab:  Solving for p_rgh, Initial residual = 0.000145263, Final residual = 9.11111e-05, No Iterations 3
diagonalPBiCGStab:  Solving for p_rgh, Initial residual = 0.000105585, Final residual = 9.08645e-05, No Iterations 3
time step continuity errors : sum local = 0.000141723, global = 6.04308e-05, cumulative = 0.0192584
diagonalPBiCGStab:  Solving for p_rgh, Initial residual = 0.00055389, Final residual = 9.98025e-05, No Iterations 11
diagonalPBiCGStab:  Solving for p_rgh, Initial residual = 0.000155152, Final residual = 8.40539e-05, No Iterations 3
diagonalPBiCGStab:  Solving for p_rgh, Initial residual = 9.56916e-05, Final residual = 7.94627e-05, No Iterations 3
diagonalPBiCGStab:  Solving for p_rgh, Initial residual = 8.50796e-05, Final residual = 3.6624e-05, No Iterations 50
time step continuity errors : sum local = 5.74868e-05, global = 4.66805e-05, cumulative = 0.0193051
ExecutionTime = 13925.4 s  ClockTime = 13966 s

End

